MODEL 1
REMARK VINA RESULT:    -6.477      0.000      0.000
REMARK ITER + INTRA:           -8.762
REMARK INTER:                  -8.150
REMARK INTRA:                  -0.612
REMARK UNBOUND:                -0.771
REMARK Flexibility Score: inf
REMARK Active torsions [ 4 ] -> [ 4 ]
ROOT
ATOM      1  C1  LIG L   1      44.491  35.788  77.036  1.00  0.00     0.213 C 
ATOM      2  C2  LIG L   1      45.485  34.869  76.355  1.00  0.00     0.163 C 
ATOM      3  N1  LIG L   1      45.709  35.493  75.088  1.00  0.00    -0.234 N 
ATOM      4  C3  LIG L   1      45.228  36.799  75.132  1.00  0.00     0.408 C 
ATOM      5  O1  LIG L   1      45.318  37.675  74.284  1.00  0.00    -0.226 OA
ATOM      6  O2  LIG L   1      44.619  37.027  76.334  1.00  0.00    -0.444 O 
ENDROOT
BRANCH    1    7
ATOM      7  C4  LIG L   1      43.042  35.274  77.012  1.00  0.00     0.150 C 
BRANCH    7    8
ATOM      8  N2  LIG L   1      42.906  33.839  77.200  1.00  0.00    -0.312 N 
ATOM      9  C5  LIG L   1      42.052  31.605  76.769  1.00  0.00     0.109 C 
ATOM     10  C6  LIG L   1      42.005  33.087  76.468  1.00  0.00     0.210 C 
ATOM     11  O3  LIG L   1      41.216  33.567  75.665  1.00  0.00    -0.276 OA
ATOM     12  H1  LIG L   1      43.471  33.389  77.868  1.00  0.00     0.149 HD
ENDBRANCH    7    8
ENDBRANCH    1    7
BRANCH    3   13
ATOM     13  C7  LIG L   1      46.476  34.895  74.052  1.00  0.00     0.042 A 
ATOM     14  C8  LIG L   1      46.099  34.959  72.708  1.00  0.00     0.025 A 
ATOM     15  C9  LIG L   1      47.657  34.208  74.345  1.00  0.00     0.063 A 
ATOM     16 C10  LIG L   1      46.885  34.380  71.694  1.00  0.00     0.028 A 
ATOM     17 C11  LIG L   1      48.429  33.627  73.327  1.00  0.00     0.146 A 
ATOM     18 C12  LIG L   1      48.086  33.707  71.964  1.00  0.00     0.066 A 
ATOM     19  F1  LIG L   1      49.552  33.002  73.719  1.00  0.00    -0.203 F 
BRANCH   18   20
ATOM     20  N3  LIG L   1      48.833  33.144  70.925  1.00  0.00    -0.325 N 
ATOM     21 C13  LIG L   1      49.307  33.992  69.829  1.00  0.00     0.107 C 
ATOM     22 C14  LIG L   1      48.740  31.694  70.679  1.00  0.00     0.133 C 
ATOM     23 C15  LIG L   1      50.387  33.340  68.960  1.00  0.00     0.047 C 
ATOM     24 C16  LIG L   1      50.087  31.019  70.969  1.00  0.00     0.178 C 
ATOM     25 C17  LIG L   1      51.439  32.583  69.759  1.00  0.00     0.161 C 
ATOM     26  O4  LIG L   1      51.060  31.218  69.939  1.00  0.00    -0.378 OA
ENDBRANCH   18   20
ENDBRANCH    3   13
TORSDOF 4
ENDMDL
MODEL 2
REMARK VINA RESULT:    -6.452      3.969      5.290
REMARK ITER + INTRA:           -8.731
REMARK INTER:                  -8.134
REMARK INTRA:                  -0.597
REMARK UNBOUND:                -0.771
REMARK Flexibility Score: inf
REMARK Active torsions [ 4 ] -> [ 4 ]
ROOT
ATOM      1  C1  LIG L   1      41.808  33.603  79.132  1.00  0.00     0.213 C 
ATOM      2  C2  LIG L   1      42.919  34.537  78.698  1.00  0.00     0.163 C 
ATOM      3  N1  LIG L   1      43.004  34.327  77.286  1.00  0.00    -0.234 N 
ATOM      4  C3  LIG L   1      41.862  33.658  76.854  1.00  0.00     0.408 C 
ATOM      5  O1  LIG L   1      41.523  33.383  75.714  1.00  0.00    -0.226 OA
ATOM      6  O2  LIG L   1      41.080  33.338  77.930  1.00  0.00    -0.444 O 
ENDROOT
BRANCH    1    7
ATOM      7  C4  LIG L   1      42.301  32.302  79.789  1.00  0.00     0.150 C 
BRANCH    7    8
ATOM      8  N2  LIG L   1      43.548  31.787  79.250  1.00  0.00    -0.312 N 
ATOM      9  C5  LIG L   1      45.229  30.111  78.729  1.00  0.00     0.109 C 
ATOM     10  C6  LIG L   1      43.925  30.466  79.408  1.00  0.00     0.210 C 
ATOM     11  O3  LIG L   1      43.284  29.652  80.061  1.00  0.00    -0.276 OA
ATOM     12  H1  LIG L   1      44.144  32.397  78.758  1.00  0.00     0.149 HD
ENDBRANCH    7    8
ENDBRANCH    1    7
BRANCH    3   13
ATOM     13  C7  LIG L   1      44.019  34.903  76.474  1.00  0.00     0.042 A 
ATOM     14  C8  LIG L   1      44.947  34.128  75.774  1.00  0.00     0.025 A 
ATOM     15  C9  LIG L   1      44.129  36.290  76.346  1.00  0.00     0.063 A 
ATOM     16 C10  LIG L   1      45.932  34.716  74.957  1.00  0.00     0.028 A 
ATOM     17 C11  LIG L   1      45.119  36.866  75.535  1.00  0.00     0.146 A 
ATOM     18 C12  LIG L   1      46.044  36.105  74.795  1.00  0.00     0.066 A 
ATOM     19  F1  LIG L   1      45.126  38.208  75.474  1.00  0.00    -0.203 F 
BRANCH   18   20
ATOM     20  N3  LIG L   1      47.039  36.646  73.976  1.00  0.00    -0.325 N 
ATOM     21 C13  LIG L   1      46.950  36.486  72.523  1.00  0.00     0.107 C 
ATOM     22 C14  LIG L   1      48.363  36.938  74.554  1.00  0.00     0.133 C 
ATOM     23 C15  LIG L   1      47.890  37.405  71.737  1.00  0.00     0.047 C 
ATOM     24 C16  LIG L   1      48.624  38.450  74.545  1.00  0.00     0.178 C 
ATOM     25 C17  LIG L   1      47.947  38.827  72.279  1.00  0.00     0.161 C 
ATOM     26  O4  LIG L   1      48.979  38.961  73.257  1.00  0.00    -0.378 OA
ENDBRANCH   18   20
ENDBRANCH    3   13
TORSDOF 4
ENDMDL
MODEL 3
REMARK VINA RESULT:    -6.388      1.027      1.371
REMARK ITER + INTRA:           -8.652
REMARK INTER:                  -7.919
REMARK INTRA:                  -0.734
REMARK UNBOUND:                -0.771
REMARK Flexibility Score: inf
REMARK Active torsions [ 4 ] -> [ 4 ]
ROOT
ATOM      1  C1  LIG L   1      44.616  36.134  77.000  1.00  0.00     0.213 C 
ATOM      2  C2  LIG L   1      45.601  35.201  76.324  1.00  0.00     0.163 C 
ATOM      3  N1  LIG L   1      45.798  35.793  75.038  1.00  0.00    -0.234 N 
ATOM      4  C3  LIG L   1      45.314  37.098  75.057  1.00  0.00     0.408 C 
ATOM      5  O1  LIG L   1      45.385  37.952  74.186  1.00  0.00    -0.226 OA
ATOM      6  O2  LIG L   1      44.727  37.355  76.265  1.00  0.00    -0.444 O 
ENDROOT
BRANCH    1    7
ATOM      7  C4  LIG L   1      43.168  35.615  77.016  1.00  0.00     0.150 C 
BRANCH    7    8
ATOM      8  N2  LIG L   1      43.044  34.167  76.986  1.00  0.00    -0.312 N 
ATOM      9  C5  LIG L   1      41.981  32.029  76.535  1.00  0.00     0.109 C 
ATOM     10  C6  LIG L   1      41.895  33.540  76.541  1.00  0.00     0.210 C 
ATOM     11  O3  LIG L   1      40.882  34.139  76.205  1.00  0.00    -0.276 OA
ATOM     12  H1  LIG L   1      43.800  33.617  77.292  1.00  0.00     0.149 HD
ENDBRANCH    7    8
ENDBRANCH    1    7
BRANCH    3   13
ATOM     13  C7  LIG L   1      46.549  35.171  74.003  1.00  0.00     0.042 A 
ATOM     14  C8  LIG L   1      47.913  34.896  74.130  1.00  0.00     0.025 A 
ATOM     15  C9  LIG L   1      45.940  34.807  72.800  1.00  0.00     0.063 A 
ATOM     16 C10  LIG L   1      48.635  34.259  73.102  1.00  0.00     0.028 A 
ATOM     17 C11  LIG L   1      46.670  34.179  71.779  1.00  0.00     0.146 A 
ATOM     18 C12  LIG L   1      48.037  33.864  71.897  1.00  0.00     0.066 A 
ATOM     19  F1  LIG L   1      45.982  33.861  70.670  1.00  0.00    -0.203 F 
BRANCH   18   20
ATOM     20  N3  LIG L   1      48.793  33.236  70.902  1.00  0.00    -0.325 N 
ATOM     21 C13  LIG L   1      49.315  34.024  69.782  1.00  0.00     0.107 C 
ATOM     22 C14  LIG L   1      48.667  31.780  70.717  1.00  0.00     0.133 C 
ATOM     23 C15  LIG L   1      50.396  33.307  68.968  1.00  0.00     0.047 C 
ATOM     24 C16  LIG L   1      49.989  31.084  71.068  1.00  0.00     0.178 C 
ATOM     25 C17  LIG L   1      51.409  32.559  69.824  1.00  0.00     0.161 C 
ATOM     26  O4  LIG L   1      50.990  31.213  70.054  1.00  0.00    -0.378 OA
ENDBRANCH   18   20
ENDBRANCH    3   13
TORSDOF 4
ENDMDL
MODEL 4
REMARK VINA RESULT:    -6.252      4.840      9.404
REMARK ITER + INTRA:           -8.484
REMARK INTER:                  -7.619
REMARK INTRA:                  -0.865
REMARK UNBOUND:                -0.771
REMARK Flexibility Score: inf
REMARK Active torsions [ 4 ] -> [ 4 ]
ROOT
ATOM      1  C1  LIG L   1      49.589  28.057  76.459  1.00  0.00     0.213 C 
ATOM      2  C2  LIG L   1      48.842  28.934  77.443  1.00  0.00     0.163 C 
ATOM      3  N1  LIG L   1      47.544  29.069  76.858  1.00  0.00    -0.234 N 
ATOM      4  C3  LIG L   1      47.389  28.105  75.864  1.00  0.00     0.408 C 
ATOM      5  O1  LIG L   1      46.395  27.840  75.205  1.00  0.00    -0.226 OA
ATOM      6  O2  LIG L   1      48.557  27.410  75.709  1.00  0.00    -0.444 O 
ENDROOT
BRANCH    1    7
ATOM      7  C4  LIG L   1      50.555  28.824  75.540  1.00  0.00     0.150 C 
BRANCH    7    8
ATOM      8  N2  LIG L   1      50.057  29.055  74.195  1.00  0.00    -0.312 N 
ATOM      9  C5  LIG L   1      49.036  30.306  72.379  1.00  0.00     0.109 C 
ATOM     10  C6  LIG L   1      49.435  30.237  73.837  1.00  0.00     0.210 C 
ATOM     11  O3  LIG L   1      49.196  31.143  74.625  1.00  0.00    -0.276 OA
ATOM     12  H1  LIG L   1      50.165  28.348  73.518  1.00  0.00     0.149 HD
ENDBRANCH    7    8
ENDBRANCH    1    7
BRANCH    3   13
ATOM     13  C7  LIG L   1      46.543  29.934  77.377  1.00  0.00     0.042 A 
ATOM     14  C8  LIG L   1      46.299  31.202  76.845  1.00  0.00     0.025 A 
ATOM     15  C9  LIG L   1      45.753  29.540  78.460  1.00  0.00     0.063 A 
ATOM     16 C10  LIG L   1      45.287  32.036  77.359  1.00  0.00     0.028 A 
ATOM     17 C11  LIG L   1      44.752  30.382  78.970  1.00  0.00     0.146 A 
ATOM     18 C12  LIG L   1      44.467  31.650  78.429  1.00  0.00     0.066 A 
ATOM     19  F1  LIG L   1      44.043  29.899  80.004  1.00  0.00    -0.203 F 
BRANCH   18   20
ATOM     20  N3  LIG L   1      43.476  32.511  78.911  1.00  0.00    -0.325 N 
ATOM     21 C13  LIG L   1      43.735  33.322  80.104  1.00  0.00     0.107 C 
ATOM     22 C14  LIG L   1      42.071  32.266  78.539  1.00  0.00     0.133 C 
ATOM     23 C15  LIG L   1      42.728  34.455  80.316  1.00  0.00     0.047 C 
ATOM     24 C16  LIG L   1      41.546  33.412  77.664  1.00  0.00     0.178 C 
ATOM     25 C17  LIG L   1      42.365  35.197  79.037  1.00  0.00     0.161 C 
ATOM     26  O4  LIG L   1      41.234  34.598  78.401  1.00  0.00    -0.378 OA
ENDBRANCH   18   20
ENDBRANCH    3   13
TORSDOF 4
ENDMDL
MODEL 5
REMARK VINA RESULT:    -6.219      3.673      5.078
REMARK ITER + INTRA:           -8.444
REMARK INTER:                  -7.858
REMARK INTRA:                  -0.586
REMARK UNBOUND:                -0.771
REMARK Flexibility Score: inf
REMARK Active torsions [ 4 ] -> [ 4 ]
ROOT
ATOM      1  C1  LIG L   1      41.816  33.593  79.122  1.00  0.00     0.213 C 
ATOM      2  C2  LIG L   1      42.902  34.578  78.741  1.00  0.00     0.163 C 
ATOM      3  N1  LIG L   1      43.053  34.386  77.332  1.00  0.00    -0.234 N 
ATOM      4  C3  LIG L   1      41.959  33.673  76.849  1.00  0.00     0.408 C 
ATOM      5  O1  LIG L   1      41.678  33.395  75.693  1.00  0.00    -0.226 OA
ATOM      6  O2  LIG L   1      41.149  33.310  77.889  1.00  0.00    -0.444 O 
ENDROOT
BRANCH    1    7
ATOM      7  C4  LIG L   1      42.338  32.308  79.788  1.00  0.00     0.150 C 
BRANCH    7    8
ATOM      8  N2  LIG L   1      43.575  31.795  79.225  1.00  0.00    -0.312 N 
ATOM      9  C5  LIG L   1      45.253  30.123  78.684  1.00  0.00     0.109 C 
ATOM     10  C6  LIG L   1      43.964  30.478  79.391  1.00  0.00     0.210 C 
ATOM     11  O3  LIG L   1      43.345  29.668  80.069  1.00  0.00    -0.276 OA
ATOM     12  H1  LIG L   1      44.153  32.402  78.711  1.00  0.00     0.149 HD
ENDBRANCH    7    8
ENDBRANCH    1    7
BRANCH    3   13
ATOM     13  C7  LIG L   1      44.074  35.013  76.567  1.00  0.00     0.042 A 
ATOM     14  C8  LIG L   1      45.093  34.288  75.942  1.00  0.00     0.025 A 
ATOM     15  C9  LIG L   1      44.099  36.401  76.411  1.00  0.00     0.063 A 
ATOM     16 C10  LIG L   1      46.083  34.925  75.170  1.00  0.00     0.028 A 
ATOM     17 C11  LIG L   1      45.095  37.026  75.645  1.00  0.00     0.146 A 
ATOM     18 C12  LIG L   1      46.111  36.314  74.980  1.00  0.00     0.066 A 
ATOM     19  F1  LIG L   1      45.015  38.364  75.550  1.00  0.00    -0.203 F 
BRANCH   18   20
ATOM     20  N3  LIG L   1      47.116  36.905  74.207  1.00  0.00    -0.325 N 
ATOM     21 C13  LIG L   1      48.231  37.590  74.866  1.00  0.00     0.107 C 
ATOM     22 C14  LIG L   1      46.829  37.253  72.804  1.00  0.00     0.133 C 
ATOM     23 C15  LIG L   1      49.416  37.879  73.942  1.00  0.00     0.047 C 
ATOM     24 C16  LIG L   1      47.686  36.400  71.860  1.00  0.00     0.178 C 
ATOM     25 C17  LIG L   1      49.761  36.724  73.011  1.00  0.00     0.161 C 
ATOM     26  O4  LIG L   1      49.048  36.829  71.779  1.00  0.00    -0.378 OA
ENDBRANCH   18   20
ENDBRANCH    3   13
TORSDOF 4
ENDMDL
MODEL 6
REMARK VINA RESULT:    -6.216      3.806      5.070
REMARK ITER + INTRA:           -8.441
REMARK INTER:                  -7.824
REMARK INTRA:                  -0.616
REMARK UNBOUND:                -0.771
REMARK Flexibility Score: inf
REMARK Active torsions [ 4 ] -> [ 4 ]
ROOT
ATOM      1  C1  LIG L   1      41.851  33.789  79.146  1.00  0.00     0.213 C 
ATOM      2  C2  LIG L   1      42.950  34.722  78.679  1.00  0.00     0.163 C 
ATOM      3  N1  LIG L   1      43.043  34.460  77.276  1.00  0.00    -0.234 N 
ATOM      4  C3  LIG L   1      41.911  33.758  76.868  1.00  0.00     0.408 C 
ATOM      5  O1  LIG L   1      41.579  33.434  75.737  1.00  0.00    -0.226 OA
ATOM      6  O2  LIG L   1      41.131  33.468  77.953  1.00  0.00    -0.444 O 
ENDROOT
BRANCH    1    7
ATOM      7  C4  LIG L   1      42.361  32.522  79.854  1.00  0.00     0.150 C 
BRANCH    7    8
ATOM      8  N2  LIG L   1      43.584  31.970  79.298  1.00  0.00    -0.312 N 
ATOM      9  C5  LIG L   1      45.169  30.233  78.683  1.00  0.00     0.109 C 
ATOM     10  C6  LIG L   1      43.875  30.619  79.366  1.00  0.00     0.210 C 
ATOM     11  O3  LIG L   1      43.173  29.802  79.947  1.00  0.00    -0.276 OA
ATOM     12  H1  LIG L   1      44.226  32.575  78.861  1.00  0.00     0.149 HD
ENDBRANCH    7    8
ENDBRANCH    1    7
BRANCH    3   13
ATOM     13  C7  LIG L   1      44.052  35.018  76.446  1.00  0.00     0.042 A 
ATOM     14  C8  LIG L   1      44.136  36.389  76.189  1.00  0.00     0.025 A 
ATOM     15  C9  LIG L   1      45.013  34.202  75.845  1.00  0.00     0.063 A 
ATOM     16 C10  LIG L   1      45.157  36.926  75.381  1.00  0.00     0.028 A 
ATOM     17 C11  LIG L   1      46.022  34.747  75.035  1.00  0.00     0.146 A 
ATOM     18 C12  LIG L   1      46.146  36.128  74.789  1.00  0.00     0.066 A 
ATOM     19  F1  LIG L   1      46.902  33.873  74.518  1.00  0.00    -0.203 F 
BRANCH   18   20
ATOM     20  N3  LIG L   1      47.139  36.703  73.991  1.00  0.00    -0.325 N 
ATOM     21 C13  LIG L   1      47.041  36.616  72.532  1.00  0.00     0.107 C 
ATOM     22 C14  LIG L   1      48.468  36.959  74.575  1.00  0.00     0.133 C 
ATOM     23 C15  LIG L   1      47.981  37.567  71.787  1.00  0.00     0.047 C 
ATOM     24 C16  LIG L   1      48.738  38.469  74.639  1.00  0.00     0.178 C 
ATOM     25 C17  LIG L   1      48.050  38.960  72.397  1.00  0.00     0.161 C 
ATOM     26  O4  LIG L   1      49.088  39.040  73.375  1.00  0.00    -0.378 OA
ENDBRANCH   18   20
ENDBRANCH    3   13
TORSDOF 4
ENDMDL
MODEL 7
REMARK VINA RESULT:    -6.212      5.672      7.892
REMARK ITER + INTRA:           -8.436
REMARK INTER:                  -7.630
REMARK INTRA:                  -0.806
REMARK UNBOUND:                -0.771
REMARK Flexibility Score: inf
REMARK Active torsions [ 4 ] -> [ 4 ]
ROOT
ATOM      1  C1  LIG L   1      41.225  32.917  77.402  1.00  0.00     0.213 C 
ATOM      2  C2  LIG L   1      42.162  31.741  77.215  1.00  0.00     0.163 C 
ATOM      3  N1  LIG L   1      42.978  31.769  78.389  1.00  0.00    -0.234 N 
ATOM      4  C3  LIG L   1      42.381  32.596  79.338  1.00  0.00     0.408 C 
ATOM      5  O1  LIG L   1      42.721  32.802  80.494  1.00  0.00    -0.226 OA
ATOM      6  O2  LIG L   1      41.266  33.181  78.806  1.00  0.00    -0.444 O 
ENDROOT
BRANCH    1    7
ATOM      7  C4  LIG L   1      41.608  34.162  76.583  1.00  0.00     0.150 C 
BRANCH    7    8
ATOM      8  N2  LIG L   1      42.949  34.130  76.025  1.00  0.00    -0.312 N 
ATOM      9  C5  LIG L   1      45.343  34.539  75.950  1.00  0.00     0.109 C 
ATOM     10  C6  LIG L   1      44.021  34.729  76.661  1.00  0.00     0.210 C 
ATOM     11  O3  LIG L   1      43.920  35.381  77.692  1.00  0.00    -0.276 OA
ATOM     12  H1  LIG L   1      43.099  33.668  75.169  1.00  0.00     0.149 HD
ENDBRANCH    7    8
ENDBRANCH    1    7
BRANCH    3   13
ATOM     13  C7  LIG L   1      44.101  30.919  78.576  1.00  0.00     0.042 A 
ATOM     14  C8  LIG L   1      45.136  30.830  77.642  1.00  0.00     0.025 A 
ATOM     15  C9  LIG L   1      44.213  30.127  79.721  1.00  0.00     0.063 A 
ATOM     16 C10  LIG L   1      46.253  29.999  77.856  1.00  0.00     0.028 A 
ATOM     17 C11  LIG L   1      45.326  29.296  79.921  1.00  0.00     0.146 A 
ATOM     18 C12  LIG L   1      46.396  29.214  79.009  1.00  0.00     0.066 A 
ATOM     19  F1  LIG L   1      45.338  28.587  81.063  1.00  0.00    -0.203 F 
BRANCH   18   20
ATOM     20  N3  LIG L   1      47.520  28.400  79.179  1.00  0.00    -0.325 N 
ATOM     21 C13  LIG L   1      48.809  29.005  79.525  1.00  0.00     0.107 C 
ATOM     22 C14  LIG L   1      47.534  27.060  78.566  1.00  0.00     0.133 C 
ATOM     23 C15  LIG L   1      49.855  28.001  80.018  1.00  0.00     0.047 C 
ATOM     24 C16  LIG L   1      47.553  25.979  79.655  1.00  0.00     0.178 C 
ATOM     25 C17  LIG L   1      49.296  26.958  80.976  1.00  0.00     0.161 C 
ATOM     26  O4  LIG L   1      48.835  25.807  80.267  1.00  0.00    -0.378 OA
ENDBRANCH   18   20
ENDBRANCH    3   13
TORSDOF 4
ENDMDL
MODEL 8
REMARK VINA RESULT:    -6.109      5.362      7.547
REMARK ITER + INTRA:           -8.309
REMARK INTER:                  -7.515
REMARK INTRA:                  -0.793
REMARK UNBOUND:                -0.771
REMARK Flexibility Score: inf
REMARK Active torsions [ 4 ] -> [ 4 ]
ROOT
ATOM      1  C1  LIG L   1      41.237  32.871  77.440  1.00  0.00     0.213 C 
ATOM      2  C2  LIG L   1      42.195  31.716  77.230  1.00  0.00     0.163 C 
ATOM      3  N1  LIG L   1      43.006  31.731  78.407  1.00  0.00    -0.234 N 
ATOM      4  C3  LIG L   1      42.392  32.524  79.373  1.00  0.00     0.408 C 
ATOM      5  O1  LIG L   1      42.725  32.709  80.534  1.00  0.00    -0.226 OA
ATOM      6  O2  LIG L   1      41.269  33.103  78.851  1.00  0.00    -0.444 O 
ENDROOT
BRANCH    1    7
ATOM      7  C4  LIG L   1      41.601  34.141  76.652  1.00  0.00     0.150 C 
BRANCH    7    8
ATOM      8  N2  LIG L   1      42.925  34.122  76.053  1.00  0.00    -0.312 N 
ATOM      9  C5  LIG L   1      45.316  34.535  75.914  1.00  0.00     0.109 C 
ATOM     10  C6  LIG L   1      44.016  34.708  76.669  1.00  0.00     0.210 C 
ATOM     11  O3  LIG L   1      43.946  35.337  77.716  1.00  0.00    -0.276 OA
ATOM     12  H1  LIG L   1      43.049  33.679  75.182  1.00  0.00     0.149 HD
ENDBRANCH    7    8
ENDBRANCH    1    7
BRANCH    3   13
ATOM     13  C7  LIG L   1      44.143  30.896  78.579  1.00  0.00     0.042 A 
ATOM     14  C8  LIG L   1      45.168  30.824  77.632  1.00  0.00     0.025 A 
ATOM     15  C9  LIG L   1      44.279  30.102  79.720  1.00  0.00     0.063 A 
ATOM     16 C10  LIG L   1      46.298  30.007  77.831  1.00  0.00     0.028 A 
ATOM     17 C11  LIG L   1      45.406  29.286  79.904  1.00  0.00     0.146 A 
ATOM     18 C12  LIG L   1      46.466  29.221  78.980  1.00  0.00     0.066 A 
ATOM     19  F1  LIG L   1      45.441  28.574  81.044  1.00  0.00    -0.203 F 
BRANCH   18   20
ATOM     20  N3  LIG L   1      47.603  28.422  79.134  1.00  0.00    -0.325 N 
ATOM     21 C13  LIG L   1      47.504  26.973  78.940  1.00  0.00     0.107 C 
ATOM     22 C14  LIG L   1      48.736  28.933  79.926  1.00  0.00     0.133 C 
ATOM     23 C15  LIG L   1      48.858  26.272  78.793  1.00  0.00     0.047 C 
ATOM     24 C16  LIG L   1      49.961  29.144  79.027  1.00  0.00     0.178 C 
ATOM     25 C17  LIG L   1      49.844  27.027  77.912  1.00  0.00     0.161 C 
ATOM     26  O4  LIG L   1      50.635  27.929  78.686  1.00  0.00    -0.378 OA
ENDBRANCH   18   20
ENDBRANCH    3   13
TORSDOF 4
ENDMDL
MODEL 9
REMARK VINA RESULT:    -6.096      6.666      9.053
REMARK ITER + INTRA:           -8.292
REMARK INTER:                  -7.690
REMARK INTRA:                  -0.602
REMARK UNBOUND:                -0.771
REMARK Flexibility Score: inf
REMARK Active torsions [ 4 ] -> [ 4 ]
ROOT
ATOM      1  C1  LIG L   1      42.275  40.285  81.546  1.00  0.00     0.213 C 
ATOM      2  C2  LIG L   1      43.144  39.125  81.102  1.00  0.00     0.163 C 
ATOM      3  N1  LIG L   1      42.224  38.241  80.457  1.00  0.00    -0.234 N 
ATOM      4  C3  LIG L   1      41.040  38.926  80.196  1.00  0.00     0.408 C 
ATOM      5  O1  LIG L   1      40.056  38.545  79.580  1.00  0.00    -0.226 OA
ATOM      6  O2  LIG L   1      41.109  40.186  80.724  1.00  0.00    -0.444 O 
ENDROOT
BRANCH    1    7
ATOM      7  C4  LIG L   1      41.915  40.263  83.041  1.00  0.00     0.150 C 
BRANCH    7    8
ATOM      8  N2  LIG L   1      40.649  40.898  83.367  1.00  0.00    -0.312 N 
ATOM      9  C5  LIG L   1      38.330  41.011  84.085  1.00  0.00     0.109 C 
ATOM     10  C6  LIG L   1      39.534  40.166  83.732  1.00  0.00     0.210 C 
ATOM     11  O3  LIG L   1      39.502  38.942  83.746  1.00  0.00    -0.276 OA
ATOM     12  H1  LIG L   1      40.582  41.880  83.326  1.00  0.00     0.149 HD
ENDBRANCH    7    8
ENDBRANCH    1    7
BRANCH    3   13
ATOM     13  C7  LIG L   1      42.581  36.943  80.002  1.00  0.00     0.042 A 
ATOM     14  C8  LIG L   1      43.126  36.717  78.735  1.00  0.00     0.025 A 
ATOM     15  C9  LIG L   1      42.397  35.825  80.820  1.00  0.00     0.063 A 
ATOM     16 C10  LIG L   1      43.495  35.425  78.312  1.00  0.00     0.028 A 
ATOM     17 C11  LIG L   1      42.762  34.541  80.385  1.00  0.00     0.146 A 
ATOM     18 C12  LIG L   1      43.341  34.294  79.126  1.00  0.00     0.066 A 
ATOM     19  F1  LIG L   1      42.553  33.540  81.256  1.00  0.00    -0.203 F 
BRANCH   18   20
ATOM     20  N3  LIG L   1      43.719  33.030  78.663  1.00  0.00    -0.325 N 
ATOM     21 C13  LIG L   1      44.821  32.906  77.706  1.00  0.00     0.107 C 
ATOM     22 C14  LIG L   1      42.754  31.919  78.745  1.00  0.00     0.133 C 
ATOM     23 C15  LIG L   1      45.355  31.479  77.553  1.00  0.00     0.047 C 
ATOM     24 C16  LIG L   1      43.257  30.851  79.726  1.00  0.00     0.178 C 
ATOM     25 C17  LIG L   1      45.492  30.734  78.873  1.00  0.00     0.161 C 
ATOM     26  O4  LIG L   1      44.294  30.024  79.188  1.00  0.00    -0.378 OA
ENDBRANCH   18   20
ENDBRANCH    3   13
TORSDOF 4
ENDMDL
MODEL 10
REMARK VINA RESULT:    -6.085      5.440      7.736
REMARK ITER + INTRA:           -8.279
REMARK INTER:                  -7.465
REMARK INTRA:                  -0.813
REMARK UNBOUND:                -0.771
REMARK Flexibility Score: inf
REMARK Active torsions [ 4 ] -> [ 4 ]
ROOT
ATOM      1  C1  LIG L   1      41.236  32.897  77.431  1.00  0.00     0.213 C 
ATOM      2  C2  LIG L   1      42.185  31.733  77.229  1.00  0.00     0.163 C 
ATOM      3  N1  LIG L   1      42.997  31.752  78.406  1.00  0.00    -0.234 N 
ATOM      4  C3  LIG L   1      42.391  32.558  79.366  1.00  0.00     0.408 C 
ATOM      5  O1  LIG L   1      42.726  32.749  80.525  1.00  0.00    -0.226 OA
ATOM      6  O2  LIG L   1      41.271  33.140  78.840  1.00  0.00    -0.444 O 
ENDROOT
BRANCH    1    7
ATOM      7  C4  LIG L   1      41.608  34.158  76.633  1.00  0.00     0.150 C 
BRANCH    7    8
ATOM      8  N2  LIG L   1      42.935  34.130  76.042  1.00  0.00    -0.312 N 
ATOM      9  C5  LIG L   1      45.327  34.537  75.912  1.00  0.00     0.109 C 
ATOM     10  C6  LIG L   1      44.024  34.722  76.657  1.00  0.00     0.210 C 
ATOM     11  O3  LIG L   1      43.948  35.364  77.696  1.00  0.00    -0.276 OA
ATOM     12  H1  LIG L   1      43.063  33.676  75.178  1.00  0.00     0.149 HD
ENDBRANCH    7    8
ENDBRANCH    1    7
BRANCH    3   13
ATOM     13  C7  LIG L   1      44.129  30.910  78.582  1.00  0.00     0.042 A 
ATOM     14  C8  LIG L   1      44.305  30.122  79.723  1.00  0.00     0.025 A 
ATOM     15  C9  LIG L   1      45.125  30.840  77.605  1.00  0.00     0.063 A 
ATOM     16 C10  LIG L   1      45.422  29.277  79.869  1.00  0.00     0.028 A 
ATOM     17 C11  LIG L   1      46.238  30.000  77.765  1.00  0.00     0.146 A 
ATOM     18 C12  LIG L   1      46.420  29.173  78.890  1.00  0.00     0.066 A 
ATOM     19  F1  LIG L   1      47.128  29.999  76.758  1.00  0.00    -0.203 F 
BRANCH   18   20
ATOM     20  N3  LIG L   1      47.514  28.323  79.079  1.00  0.00    -0.325 N 
ATOM     21 C13  LIG L   1      48.788  28.873  79.549  1.00  0.00     0.107 C 
ATOM     22 C14  LIG L   1      47.543  27.026  78.380  1.00  0.00     0.133 C 
ATOM     23 C15  LIG L   1      49.778  27.814  80.042  1.00  0.00     0.047 C 
ATOM     24 C16  LIG L   1      47.468  25.876  79.393  1.00  0.00     0.178 C 
ATOM     25 C17  LIG L   1      49.135  26.724  80.889  1.00  0.00     0.161 C 
ATOM     26  O4  LIG L   1      48.701  25.633  80.075  1.00  0.00    -0.378 OA
ENDBRANCH   18   20
ENDBRANCH    3   13
TORSDOF 4
ENDMDL
MODEL 11
REMARK VINA RESULT:    -6.079      6.547     12.274
REMARK ITER + INTRA:           -8.271
REMARK INTER:                  -7.686
REMARK INTRA:                  -0.585
REMARK UNBOUND:                -0.771
REMARK Flexibility Score: inf
REMARK Active torsions [ 4 ] -> [ 4 ]
ROOT
ATOM      1  C1  LIG L   1      44.521  35.982  77.375  1.00  0.00     0.213 C 
ATOM      2  C2  LIG L   1      44.453  36.784  78.659  1.00  0.00     0.163 C 
ATOM      3  N1  LIG L   1      43.144  36.503  79.163  1.00  0.00    -0.234 N 
ATOM      4  C3  LIG L   1      42.627  35.395  78.497  1.00  0.00     0.408 C 
ATOM      5  O1  LIG L   1      41.583  34.796  78.706  1.00  0.00    -0.226 OA
ATOM      6  O2  LIG L   1      43.496  34.996  77.519  1.00  0.00    -0.444 O 
ENDROOT
BRANCH    1    7
ATOM      7  C4  LIG L   1      44.321  36.820  76.100  1.00  0.00     0.150 C 
BRANCH    7    8
ATOM      8  N2  LIG L   1      45.125  36.398  74.966  1.00  0.00    -0.312 N 
ATOM      9  C5  LIG L   1      46.580  36.671  73.039  1.00  0.00     0.109 C 
ATOM     10  C6  LIG L   1      45.745  37.307  74.128  1.00  0.00     0.210 C 
ATOM     11  O3  LIG L   1      45.615  38.520  74.230  1.00  0.00    -0.276 OA
ATOM     12  H1  LIG L   1      45.232  35.436  74.789  1.00  0.00     0.149 HD
ENDBRANCH    7    8
ENDBRANCH    1    7
BRANCH    3   13
ATOM     13  C7  LIG L   1      42.589  37.160  80.294  1.00  0.00     0.042 A 
ATOM     14  C8  LIG L   1      42.908  36.792  81.604  1.00  0.00     0.025 A 
ATOM     15  C9  LIG L   1      41.688  38.215  80.136  1.00  0.00     0.063 A 
ATOM     16 C10  LIG L   1      42.365  37.470  82.713  1.00  0.00     0.028 A 
ATOM     17 C11  LIG L   1      41.147  38.879  81.248  1.00  0.00     0.146 A 
ATOM     18 C12  LIG L   1      41.478  38.547  82.575  1.00  0.00     0.066 A 
ATOM     19  F1  LIG L   1      40.300  39.888  80.981  1.00  0.00    -0.203 F 
BRANCH   18   20
ATOM     20  N3  LIG L   1      40.961  39.189  83.705  1.00  0.00    -0.325 N 
ATOM     21 C13  LIG L   1      41.854  39.550  84.808  1.00  0.00     0.107 C 
ATOM     22 C14  LIG L   1      39.521  39.076  83.997  1.00  0.00     0.133 C 
ATOM     23 C15  LIG L   1      41.244  40.539  85.805  1.00  0.00     0.047 C 
ATOM     24 C16  LIG L   1      38.843  40.447  83.869  1.00  0.00     0.178 C 
ATOM     25 C17  LIG L   1      40.463  41.667  85.145  1.00  0.00     0.161 C 
ATOM     26  O4  LIG L   1      39.089  41.311  84.982  1.00  0.00    -0.378 OA
ENDBRANCH   18   20
ENDBRANCH    3   13
TORSDOF 4
ENDMDL
MODEL 12
REMARK VINA RESULT:    -6.060      7.507     11.708
REMARK ITER + INTRA:           -8.248
REMARK INTER:                  -7.585
REMARK INTRA:                  -0.663
REMARK UNBOUND:                -0.771
REMARK Flexibility Score: inf
REMARK Active torsions [ 4 ] -> [ 4 ]
ROOT
ATOM      1  C1  LIG L   1      42.683  33.215  78.145  1.00  0.00     0.213 C 
ATOM      2  C2  LIG L   1      41.834  34.327  78.726  1.00  0.00     0.163 C 
ATOM      3  N1  LIG L   1      42.771  35.119  79.462  1.00  0.00    -0.234 N 
ATOM      4  C3  LIG L   1      44.063  34.773  79.074  1.00  0.00     0.408 C 
ATOM      5  O1  LIG L   1      45.122  35.285  79.403  1.00  0.00    -0.226 OA
ATOM      6  O2  LIG L   1      44.017  33.729  78.192  1.00  0.00    -0.444 O 
ENDROOT
BRANCH    1    7
ATOM      7  C4  LIG L   1      42.568  31.878  78.897  1.00  0.00     0.150 C 
BRANCH    7    8
ATOM      8  N2  LIG L   1      43.823  31.163  79.055  1.00  0.00    -0.312 N 
ATOM      9  C5  LIG L   1      45.323  29.452  79.908  1.00  0.00     0.109 C 
ATOM     10  C6  LIG L   1      43.955  30.097  79.926  1.00  0.00     0.210 C 
ATOM     11  O3  LIG L   1      43.061  29.717  80.672  1.00  0.00    -0.276 OA
ATOM     12  H1  LIG L   1      44.604  31.447  78.526  1.00  0.00     0.149 HD
ENDBRANCH    7    8
ENDBRANCH    1    7
BRANCH    3   13
ATOM     13  C7  LIG L   1      42.387  36.204  80.295  1.00  0.00     0.042 A 
ATOM     14  C8  LIG L   1      42.397  36.118  81.689  1.00  0.00     0.025 A 
ATOM     15  C9  LIG L   1      41.976  37.419  79.740  1.00  0.00     0.063 A 
ATOM     16 C10  LIG L   1      42.034  37.212  82.498  1.00  0.00     0.028 A 
ATOM     17 C11  LIG L   1      41.609  38.501  80.555  1.00  0.00     0.146 A 
ATOM     18 C12  LIG L   1      41.643  38.447  81.961  1.00  0.00     0.066 A 
ATOM     19  F1  LIG L   1      41.243  39.625  79.917  1.00  0.00    -0.203 F 
BRANCH   18   20
ATOM     20  N3  LIG L   1      41.287  39.506  82.803  1.00  0.00    -0.325 N 
ATOM     21 C13  LIG L   1      42.272  40.543  83.120  1.00  0.00     0.107 C 
ATOM     22 C14  LIG L   1      40.145  39.341  83.719  1.00  0.00     0.133 C 
ATOM     23 C15  LIG L   1      41.669  41.802  83.748  1.00  0.00     0.047 C 
ATOM     24 C16  LIG L   1      39.009  40.296  83.329  1.00  0.00     0.178 C 
ATOM     25 C17  LIG L   1      40.372  42.252  83.090  1.00  0.00     0.161 C 
ATOM     26  O4  LIG L   1      39.241  41.652  83.723  1.00  0.00    -0.378 OA
ENDBRANCH   18   20
ENDBRANCH    3   13
TORSDOF 4
ENDMDL
MODEL 13
REMARK VINA RESULT:    -6.045      5.056      7.370
REMARK ITER + INTRA:           -8.230
REMARK INTER:                  -7.423
REMARK INTRA:                  -0.807
REMARK UNBOUND:                -0.771
REMARK Flexibility Score: inf
REMARK Active torsions [ 4 ] -> [ 4 ]
ROOT
ATOM      1  C1  LIG L   1      41.198  32.908  77.424  1.00  0.00     0.213 C 
ATOM      2  C2  LIG L   1      42.147  31.743  77.223  1.00  0.00     0.163 C 
ATOM      3  N1  LIG L   1      42.987  31.788  78.380  1.00  0.00    -0.234 N 
ATOM      4  C3  LIG L   1      42.400  32.611  79.338  1.00  0.00     0.408 C 
ATOM      5  O1  LIG L   1      42.761  32.827  80.485  1.00  0.00    -0.226 OA
ATOM      6  O2  LIG L   1      41.266  33.179  78.827  1.00  0.00    -0.444 O 
ENDROOT
BRANCH    1    7
ATOM      7  C4  LIG L   1      41.547  34.154  76.592  1.00  0.00     0.150 C 
BRANCH    7    8
ATOM      8  N2  LIG L   1      42.872  34.131  75.996  1.00  0.00    -0.312 N 
ATOM      9  C5  LIG L   1      45.258  34.569  75.846  1.00  0.00     0.109 C 
ATOM     10  C6  LIG L   1      43.955  34.752  76.593  1.00  0.00     0.210 C 
ATOM     11  O3  LIG L   1      43.875  35.416  77.618  1.00  0.00    -0.276 OA
ATOM     12  H1  LIG L   1      43.004  33.660  75.142  1.00  0.00     0.149 HD
ENDBRANCH    7    8
ENDBRANCH    1    7
BRANCH    3   13
ATOM     13  C7  LIG L   1      44.125  30.954  78.547  1.00  0.00     0.042 A 
ATOM     14  C8  LIG L   1      44.333  30.193  79.701  1.00  0.00     0.025 A 
ATOM     15  C9  LIG L   1      45.096  30.863  77.547  1.00  0.00     0.063 A 
ATOM     16 C10  LIG L   1      45.456  29.355  79.838  1.00  0.00     0.028 A 
ATOM     17 C11  LIG L   1      46.216  30.030  77.697  1.00  0.00     0.146 A 
ATOM     18 C12  LIG L   1      46.429  29.231  78.836  1.00  0.00     0.066 A 
ATOM     19  F1  LIG L   1      47.079  30.009  76.668  1.00  0.00    -0.203 F 
BRANCH   18   20
ATOM     20  N3  LIG L   1      47.531  28.388  79.016  1.00  0.00    -0.325 N 
ATOM     21 C13  LIG L   1      47.322  27.000  79.435  1.00  0.00     0.107 C 
ATOM     22 C14  LIG L   1      48.858  28.984  79.252  1.00  0.00     0.133 C 
ATOM     23 C15  LIG L   1      48.553  26.106  79.259  1.00  0.00     0.047 C 
ATOM     24 C16  LIG L   1      49.796  28.671  78.079  1.00  0.00     0.178 C 
ATOM     25 C17  LIG L   1      49.289  26.333  77.946  1.00  0.00     0.161 C 
ATOM     26  O4  LIG L   1      50.300  27.332  78.093  1.00  0.00    -0.378 OA
ENDBRANCH   18   20
ENDBRANCH    3   13
TORSDOF 4
ENDMDL
MODEL 14
REMARK VINA RESULT:    -6.043      7.617     11.904
REMARK ITER + INTRA:           -8.227
REMARK INTER:                  -7.551
REMARK INTRA:                  -0.676
REMARK UNBOUND:                -0.771
REMARK Flexibility Score: inf
REMARK Active torsions [ 4 ] -> [ 4 ]
ROOT
ATOM      1  C1  LIG L   1      42.907  33.428  78.409  1.00  0.00     0.213 C 
ATOM      2  C2  LIG L   1      41.963  34.537  78.826  1.00  0.00     0.163 C 
ATOM      3  N1  LIG L   1      42.787  35.409  79.605  1.00  0.00    -0.234 N 
ATOM      4  C3  LIG L   1      44.125  35.093  79.379  1.00  0.00     0.408 C 
ATOM      5  O1  LIG L   1      45.124  35.666  79.785  1.00  0.00    -0.226 OA
ATOM      6  O2  LIG L   1      44.210  33.998  78.564  1.00  0.00    -0.444 O 
ENDROOT
BRANCH    1    7
ATOM      7  C4  LIG L   1      42.757  32.134  79.227  1.00  0.00     0.150 C 
BRANCH    7    8
ATOM      8  N2  LIG L   1      43.964  31.329  79.311  1.00  0.00    -0.312 N 
ATOM      9  C5  LIG L   1      45.332  29.420  79.937  1.00  0.00     0.109 C 
ATOM     10  C6  LIG L   1      44.002  30.138  80.014  1.00  0.00     0.210 C 
ATOM     11  O3  LIG L   1      43.061  29.706  80.667  1.00  0.00    -0.276 OA
ATOM     12  H1  LIG L   1      44.778  31.640  78.855  1.00  0.00     0.149 HD
ENDBRANCH    7    8
ENDBRANCH    1    7
BRANCH    3   13
ATOM     13  C7  LIG L   1      42.279  36.525  80.322  1.00  0.00     0.042 A 
ATOM     14  C8  LIG L   1      42.036  36.483  81.698  1.00  0.00     0.025 A 
ATOM     15  C9  LIG L   1      41.996  37.726  79.667  1.00  0.00     0.063 A 
ATOM     16 C10  LIG L   1      41.552  37.607  82.395  1.00  0.00     0.028 A 
ATOM     17 C11  LIG L   1      41.508  38.838  80.370  1.00  0.00     0.146 A 
ATOM     18 C12  LIG L   1      41.286  38.829  81.760  1.00  0.00     0.066 A 
ATOM     19  F1  LIG L   1      41.283  39.945  79.643  1.00  0.00    -0.203 F 
BRANCH   18   20
ATOM     20  N3  LIG L   1      40.804  39.919  82.492  1.00  0.00    -0.325 N 
ATOM     21 C13  LIG L   1      39.369  40.215  82.493  1.00  0.00     0.107 C 
ATOM     22 C14  LIG L   1      41.730  41.008  82.849  1.00  0.00     0.133 C 
ATOM     23 C15  LIG L   1      38.937  41.194  83.588  1.00  0.00     0.047 C 
ATOM     24 C16  LIG L   1      41.918  41.067  84.371  1.00  0.00     0.178 C 
ATOM     25 C17  LIG L   1      39.594  40.932  84.936  1.00  0.00     0.161 C 
ATOM     26  O4  LIG L   1      40.815  41.662  85.061  1.00  0.00    -0.378 OA
ENDBRANCH   18   20
ENDBRANCH    3   13
TORSDOF 4
ENDMDL
MODEL 15
REMARK VINA RESULT:    -6.033      7.310      9.555
REMARK ITER + INTRA:           -8.215
REMARK INTER:                  -7.229
REMARK INTRA:                  -0.986
REMARK UNBOUND:                -0.771
REMARK Flexibility Score: inf
REMARK Active torsions [ 4 ] -> [ 4 ]
ROOT
ATOM      1  C1  LIG L   1      41.707  42.256  81.053  1.00  0.00     0.213 C 
ATOM      2  C2  LIG L   1      42.542  40.992  81.020  1.00  0.00     0.163 C 
ATOM      3  N1  LIG L   1      41.843  40.150  80.100  1.00  0.00    -0.234 N 
ATOM      4  C3  LIG L   1      40.933  40.919  79.379  1.00  0.00     0.408 C 
ATOM      5  O1  LIG L   1      40.223  40.584  78.443  1.00  0.00    -0.226 OA
ATOM      6  O2  LIG L   1      40.939  42.203  79.849  1.00  0.00    -0.444 O 
ENDROOT
BRANCH    1    7
ATOM      7  C4  LIG L   1      40.804  42.381  82.292  1.00  0.00     0.150 C 
BRANCH    7    8
ATOM      8  N2  LIG L   1      40.801  41.214  83.158  1.00  0.00    -0.312 N 
ATOM      9  C5  LIG L   1      40.061  39.052  83.984  1.00  0.00     0.109 C 
ATOM     10  C6  LIG L   1      39.864  40.206  83.026  1.00  0.00     0.210 C 
ATOM     11  O3  LIG L   1      38.936  40.244  82.229  1.00  0.00    -0.276 OA
ATOM     12  H1  LIG L   1      41.487  41.139  83.861  1.00  0.00     0.149 HD
ENDBRANCH    7    8
ENDBRANCH    1    7
BRANCH    3   13
ATOM     13  C7  LIG L   1      42.197  38.794  79.864  1.00  0.00     0.042 A 
ATOM     14  C8  LIG L   1      41.586  37.733  80.537  1.00  0.00     0.025 A 
ATOM     15  C9  LIG L   1      43.188  38.467  78.935  1.00  0.00     0.063 A 
ATOM     16 C10  LIG L   1      41.936  36.394  80.273  1.00  0.00     0.028 A 
ATOM     17 C11  LIG L   1      43.534  37.130  78.685  1.00  0.00     0.146 A 
ATOM     18 C12  LIG L   1      42.910  36.043  79.327  1.00  0.00     0.066 A 
ATOM     19  F1  LIG L   1      44.490  36.929  77.763  1.00  0.00    -0.203 F 
BRANCH   18   20
ATOM     20  N3  LIG L   1      43.227  34.701  79.100  1.00  0.00    -0.325 N 
ATOM     21 C13  LIG L   1      44.328  34.079  79.840  1.00  0.00     0.107 C 
ATOM     22 C14  LIG L   1      42.808  34.069  77.836  1.00  0.00     0.133 C 
ATOM     23 C15  LIG L   1      44.345  32.550  79.761  1.00  0.00     0.047 C 
ATOM     24 C16  LIG L   1      41.774  32.969  78.109  1.00  0.00     0.178 C 
ATOM     25 C17  LIG L   1      42.968  31.916  79.899  1.00  0.00     0.161 C 
ATOM     26  O4  LIG L   1      42.345  31.763  78.623  1.00  0.00    -0.378 OA
ENDBRANCH   18   20
ENDBRANCH    3   13
TORSDOF 4
ENDMDL
MODEL 16
REMARK VINA RESULT:    -6.032      6.546      9.297
REMARK ITER + INTRA:           -8.213
REMARK INTER:                  -7.437
REMARK INTRA:                  -0.776
REMARK UNBOUND:                -0.771
REMARK Flexibility Score: inf
REMARK Active torsions [ 4 ] -> [ 4 ]
ROOT
ATOM      1  C1  LIG L   1      41.671  40.704  81.583  1.00  0.00     0.213 C 
ATOM      2  C2  LIG L   1      42.667  39.610  81.256  1.00  0.00     0.163 C 
ATOM      3  N1  LIG L   1      41.852  38.558  80.730  1.00  0.00    -0.234 N 
ATOM      4  C3  LIG L   1      40.595  39.069  80.416  1.00  0.00     0.408 C 
ATOM      5  O1  LIG L   1      39.660  38.510  79.864  1.00  0.00    -0.226 OA
ATOM      6  O2  LIG L   1      40.520  40.379  80.799  1.00  0.00    -0.444 O 
ENDROOT
BRANCH    1    7
ATOM      7  C4  LIG L   1      41.323  40.811  83.077  1.00  0.00     0.150 C 
BRANCH    7    8
ATOM      8  N2  LIG L   1      40.020  41.391  83.355  1.00  0.00    -0.312 N 
ATOM      9  C5  LIG L   1      37.700  41.420  84.078  1.00  0.00     0.109 C 
ATOM     10  C6  LIG L   1      38.955  40.625  83.793  1.00  0.00     0.210 C 
ATOM     11  O3  LIG L   1      39.001  39.408  83.916  1.00  0.00    -0.276 OA
ATOM     12  H1  LIG L   1      39.891  42.358  83.227  1.00  0.00     0.149 HD
ENDBRANCH    7    8
ENDBRANCH    1    7
BRANCH    3   13
ATOM     13  C7  LIG L   1      42.357  37.267  80.417  1.00  0.00     0.042 A 
ATOM     14  C8  LIG L   1      42.265  36.192  81.305  1.00  0.00     0.025 A 
ATOM     15  C9  LIG L   1      42.975  37.021  79.189  1.00  0.00     0.063 A 
ATOM     16 C10  LIG L   1      42.751  34.914  80.968  1.00  0.00     0.028 A 
ATOM     17 C11  LIG L   1      43.462  35.746  78.865  1.00  0.00     0.146 A 
ATOM     18 C12  LIG L   1      43.353  34.641  79.731  1.00  0.00     0.066 A 
ATOM     19  F1  LIG L   1      44.026  35.618  77.652  1.00  0.00    -0.203 F 
BRANCH   18   20
ATOM     20  N3  LIG L   1      43.824  33.357  79.439  1.00  0.00    -0.325 N 
ATOM     21 C13  LIG L   1      42.893  32.225  79.435  1.00  0.00     0.107 C 
ATOM     22 C14  LIG L   1      45.259  33.065  79.607  1.00  0.00     0.133 C 
ATOM     23 C15  LIG L   1      43.452  30.964  78.770  1.00  0.00     0.047 C 
ATOM     24 C16  LIG L   1      45.902  32.764  78.247  1.00  0.00     0.178 C 
ATOM     25 C17  LIG L   1      44.219  31.239  77.484  1.00  0.00     0.161 C 
ATOM     26  O4  LIG L   1      45.605  31.455  77.751  1.00  0.00    -0.378 OA
ENDBRANCH   18   20
ENDBRANCH    3   13
TORSDOF 4
ENDMDL
MODEL 17
REMARK VINA RESULT:    -6.009      6.666      9.322
REMARK ITER + INTRA:           -8.185
REMARK INTER:                  -7.215
REMARK INTRA:                  -0.970
REMARK UNBOUND:                -0.771
REMARK Flexibility Score: inf
REMARK Active torsions [ 4 ] -> [ 4 ]
ROOT
ATOM      1  C1  LIG L   1      41.019  39.812  83.549  1.00  0.00     0.213 C 
ATOM      2  C2  LIG L   1      40.842  38.510  82.795  1.00  0.00     0.163 C 
ATOM      3  N1  LIG L   1      42.090  38.340  82.117  1.00  0.00    -0.234 N 
ATOM      4  C3  LIG L   1      43.032  39.201  82.674  1.00  0.00     0.408 C 
ATOM      5  O1  LIG L   1      44.227  39.285  82.433  1.00  0.00    -0.226 OA
ATOM      6  O2  LIG L   1      42.436  39.990  83.619  1.00  0.00    -0.444 O 
ENDROOT
BRANCH    1    7
ATOM      7  C4  LIG L   1      40.332  41.020  82.888  1.00  0.00     0.150 C 
BRANCH    7    8
ATOM      8  N2  LIG L   1      39.929  40.806  81.509  1.00  0.00    -0.312 N 
ATOM      9  C5  LIG L   1      40.158  40.834  79.089  1.00  0.00     0.109 C 
ATOM     10  C6  LIG L   1      40.726  41.191  80.445  1.00  0.00     0.210 C 
ATOM     11  O3  LIG L   1      41.784  41.793  80.574  1.00  0.00    -0.276 OA
ATOM     12  H1  LIG L   1      39.064  40.375  81.325  1.00  0.00     0.149 HD
ENDBRANCH    7    8
ENDBRANCH    1    7
BRANCH    3   13
ATOM     13  C7  LIG L   1      42.325  37.308  81.169  1.00  0.00     0.042 A 
ATOM     14  C8  LIG L   1      42.539  37.572  79.813  1.00  0.00     0.025 A 
ATOM     15  C9  LIG L   1      42.350  35.969  81.564  1.00  0.00     0.063 A 
ATOM     16 C10  LIG L   1      42.793  36.537  78.893  1.00  0.00     0.028 A 
ATOM     17 C11  LIG L   1      42.597  34.944  80.637  1.00  0.00     0.146 A 
ATOM     18 C12  LIG L   1      42.847  35.188  79.273  1.00  0.00     0.066 A 
ATOM     19  F1  LIG L   1      42.612  33.693  81.127  1.00  0.00    -0.203 F 
BRANCH   18   20
ATOM     20  N3  LIG L   1      43.099  34.192  78.324  1.00  0.00    -0.325 N 
ATOM     21 C13  LIG L   1      44.417  33.554  78.274  1.00  0.00     0.107 C 
ATOM     22 C14  LIG L   1      42.257  34.123  77.117  1.00  0.00     0.133 C 
ATOM     23 C15  LIG L   1      44.453  32.266  77.447  1.00  0.00     0.047 C 
ATOM     24 C16  LIG L   1      41.437  32.825  77.116  1.00  0.00     0.178 C 
ATOM     25 C17  LIG L   1      43.250  31.361  77.673  1.00  0.00     0.161 C 
ATOM     26  O4  LIG L   1      42.199  31.669  76.756  1.00  0.00    -0.378 OA
ENDBRANCH   18   20
ENDBRANCH    3   13
TORSDOF 4
ENDMDL
MODEL 18
REMARK VINA RESULT:    -5.996      6.783     11.138
REMARK ITER + INTRA:           -8.168
REMARK INTER:                  -7.306
REMARK INTRA:                  -0.863
REMARK UNBOUND:                -0.771
REMARK Flexibility Score: inf
REMARK Active torsions [ 4 ] -> [ 4 ]
ROOT
ATOM      1  C1  LIG L   1      42.687  33.388  76.747  1.00  0.00     0.213 C 
ATOM      2  C2  LIG L   1      41.966  34.423  77.587  1.00  0.00     0.163 C 
ATOM      3  N1  LIG L   1      42.934  34.793  78.572  1.00  0.00    -0.234 N 
ATOM      4  C3  LIG L   1      44.189  34.345  78.168  1.00  0.00     0.408 C 
ATOM      5  O1  LIG L   1      45.276  34.545  78.689  1.00  0.00    -0.226 OA
ATOM      6  O2  LIG L   1      44.072  33.621  77.014  1.00  0.00    -0.444 O 
ENDROOT
BRANCH    1    7
ATOM      7  C4  LIG L   1      42.289  31.936  77.061  1.00  0.00     0.150 C 
BRANCH    7    8
ATOM      8  N2  LIG L   1      43.283  31.184  77.807  1.00  0.00    -0.312 N 
ATOM      9  C5  LIG L   1      44.301  30.161  79.762  1.00  0.00     0.109 C 
ATOM     10  C6  LIG L   1      43.202  31.021  79.178  1.00  0.00     0.210 C 
ATOM     11  O3  LIG L   1      42.340  31.543  79.872  1.00  0.00    -0.276 OA
ATOM     12  H1  LIG L   1      44.038  30.778  77.322  1.00  0.00     0.149 HD
ENDBRANCH    7    8
ENDBRANCH    1    7
BRANCH    3   13
ATOM     13  C7  LIG L   1      42.640  35.648  79.668  1.00  0.00     0.042 A 
ATOM     14  C8  LIG L   1      42.593  35.186  80.986  1.00  0.00     0.025 A 
ATOM     15  C9  LIG L   1      42.382  37.006  79.465  1.00  0.00     0.063 A 
ATOM     16 C10  LIG L   1      42.322  36.054  82.062  1.00  0.00     0.028 A 
ATOM     17 C11  LIG L   1      42.106  37.860  80.543  1.00  0.00     0.146 A 
ATOM     18 C12  LIG L   1      42.085  37.424  81.882  1.00  0.00     0.066 A 
ATOM     19  F1  LIG L   1      41.885  39.149  80.235  1.00  0.00    -0.203 F 
BRANCH   18   20
ATOM     20  N3  LIG L   1      41.816  38.248  82.979  1.00  0.00    -0.325 N 
ATOM     21 C13  LIG L   1      42.746  38.275  84.111  1.00  0.00     0.107 C 
ATOM     22 C14  LIG L   1      40.434  38.700  83.215  1.00  0.00     0.133 C 
ATOM     23 C15  LIG L   1      42.528  39.452  85.066  1.00  0.00     0.047 C 
ATOM     24 C16  LIG L   1      40.335  40.221  83.038  1.00  0.00     0.178 C 
ATOM     25 C17  LIG L   1      42.257  40.772  84.358  1.00  0.00     0.161 C 
ATOM     26  O4  LIG L   1      40.857  40.960  84.145  1.00  0.00    -0.378 OA
ENDBRANCH   18   20
ENDBRANCH    3   13
TORSDOF 4
ENDMDL
MODEL 19
REMARK VINA RESULT:    -5.971      5.159      9.238
REMARK ITER + INTRA:           -8.138
REMARK INTER:                  -7.389
REMARK INTRA:                  -0.749
REMARK UNBOUND:                -0.771
REMARK Flexibility Score: inf
REMARK Active torsions [ 4 ] -> [ 4 ]
ROOT
ATOM      1  C1  LIG L   1      49.404  28.637  74.821  1.00  0.00     0.213 C 
ATOM      2  C2  LIG L   1      48.051  29.302  74.970  1.00  0.00     0.163 C 
ATOM      3  N1  LIG L   1      48.143  29.979  76.226  1.00  0.00    -0.234 N 
ATOM      4  C3  LIG L   1      49.480  30.046  76.610  1.00  0.00     0.408 C 
ATOM      5  O1  LIG L   1      49.971  30.624  77.568  1.00  0.00    -0.226 OA
ATOM      6  O2  LIG L   1      50.254  29.364  75.713  1.00  0.00    -0.444 O 
ENDROOT
BRANCH    1    7
ATOM      7  C4  LIG L   1      49.404  27.133  75.144  1.00  0.00     0.150 C 
BRANCH    7    8
ATOM      8  N2  LIG L   1      48.676  26.310  74.193  1.00  0.00    -0.312 N 
ATOM      9  C5  LIG L   1      46.845  24.936  73.377  1.00  0.00     0.109 C 
ATOM     10  C6  LIG L   1      47.475  25.705  74.517  1.00  0.00     0.210 C 
ATOM     11  O3  LIG L   1      46.970  25.754  75.631  1.00  0.00    -0.276 OA
ATOM     12  H1  LIG L   1      49.048  26.180  73.291  1.00  0.00     0.149 HD
ENDBRANCH    7    8
ENDBRANCH    1    7
BRANCH    3   13
ATOM     13  C7  LIG L   1      47.040  30.630  76.841  1.00  0.00     0.042 A 
ATOM     14  C8  LIG L   1      46.749  31.979  76.621  1.00  0.00     0.025 A 
ATOM     15  C9  LIG L   1      46.192  29.933  77.705  1.00  0.00     0.063 A 
ATOM     16 C10  LIG L   1      45.637  32.601  77.222  1.00  0.00     0.028 A 
ATOM     17 C11  LIG L   1      45.091  30.565  78.305  1.00  0.00     0.146 A 
ATOM     18 C12  LIG L   1      44.760  31.913  78.073  1.00  0.00     0.066 A 
ATOM     19  F1  LIG L   1      44.334  29.797  79.108  1.00  0.00    -0.203 F 
BRANCH   18   20
ATOM     20  N3  LIG L   1      43.670  32.571  78.651  1.00  0.00    -0.325 N 
ATOM     21 C13  LIG L   1      43.801  33.157  79.988  1.00  0.00     0.107 C 
ATOM     22 C14  LIG L   1      42.312  32.275  78.162  1.00  0.00     0.133 C 
ATOM     23 C15  LIG L   1      42.678  34.131  80.352  1.00  0.00     0.047 C 
ATOM     24 C16  LIG L   1      41.707  33.515  77.490  1.00  0.00     0.178 C 
ATOM     25 C17  LIG L   1      42.290  35.069  79.217  1.00  0.00     0.161 C 
ATOM     26  O4  LIG L   1      41.251  34.503  78.418  1.00  0.00    -0.378 OA
ENDBRANCH   18   20
ENDBRANCH    3   13
TORSDOF 4
ENDMDL
MODEL 20
REMARK VINA RESULT:    -5.967      7.101      9.447
REMARK ITER + INTRA:           -8.133
REMARK INTER:                  -7.494
REMARK INTRA:                  -0.639
REMARK UNBOUND:                -0.771
REMARK Flexibility Score: inf
REMARK Active torsions [ 4 ] -> [ 4 ]
ROOT
ATOM      1  C1  LIG L   1      41.864  40.574  81.867  1.00  0.00     0.213 C 
ATOM      2  C2  LIG L   1      42.838  39.478  81.482  1.00  0.00     0.163 C 
ATOM      3  N1  LIG L   1      42.011  38.499  80.848  1.00  0.00    -0.234 N 
ATOM      4  C3  LIG L   1      40.780  39.072  80.539  1.00  0.00     0.408 C 
ATOM      5  O1  LIG L   1      39.847  38.589  79.915  1.00  0.00    -0.226 OA
ATOM      6  O2  LIG L   1      40.730  40.349  81.025  1.00  0.00    -0.444 O 
ENDROOT
BRANCH    1    7
ATOM      7  C4  LIG L   1      41.470  40.570  83.354  1.00  0.00     0.150 C 
BRANCH    7    8
ATOM      8  N2  LIG L   1      40.227  41.261  83.652  1.00  0.00    -0.312 N 
ATOM      9  C5  LIG L   1      37.892  41.474  84.288  1.00  0.00     0.109 C 
ATOM     10  C6  LIG L   1      39.064  40.577  83.955  1.00  0.00     0.210 C 
ATOM     11  O3  LIG L   1      38.969  39.357  83.931  1.00  0.00    -0.276 OA
ATOM     12  H1  LIG L   1      40.213  42.245  83.638  1.00  0.00     0.149 HD
ENDBRANCH    7    8
ENDBRANCH    1    7
BRANCH    3   13
ATOM     13  C7  LIG L   1      42.488  37.222  80.446  1.00  0.00     0.042 A 
ATOM     14  C8  LIG L   1      42.299  36.074  81.221  1.00  0.00     0.025 A 
ATOM     15  C9  LIG L   1      43.176  37.065  79.240  1.00  0.00     0.063 A 
ATOM     16 C10  LIG L   1      42.760  34.813  80.794  1.00  0.00     0.028 A 
ATOM     17 C11  LIG L   1      43.637  35.805  78.829  1.00  0.00     0.146 A 
ATOM     18 C12  LIG L   1      43.431  34.630  79.577  1.00  0.00     0.066 A 
ATOM     19  F1  LIG L   1      44.275  35.765  77.646  1.00  0.00    -0.203 F 
BRANCH   18   20
ATOM     20  N3  LIG L   1      43.874  33.360  79.195  1.00  0.00    -0.325 N 
ATOM     21 C13  LIG L   1      45.069  32.789  79.821  1.00  0.00     0.107 C 
ATOM     22 C14  LIG L   1      43.458  32.819  77.888  1.00  0.00     0.133 C 
ATOM     23 C15  LIG L   1      45.240  31.287  79.578  1.00  0.00     0.047 C 
ATOM     24 C16  LIG L   1      42.559  31.591  78.084  1.00  0.00     0.178 C 
ATOM     25 C17  LIG L   1      43.945  30.496  79.702  1.00  0.00     0.161 C 
ATOM     26  O4  LIG L   1      43.277  30.408  78.442  1.00  0.00    -0.378 OA
ENDBRANCH   18   20
ENDBRANCH    3   13
TORSDOF 4
ENDMDL
