MODEL 1
REMARK VINA RESULT:    -7.059      0.000      0.000
REMARK ITER + INTRA:           -9.285
REMARK INTER:                  -8.939
REMARK INTRA:                  -0.346
REMARK UNBOUND:                -0.575
REMARK Flexibility Score: inf
REMARK Active torsions [ 4 ] -> [ 4 ]
ROOT
ATOM      1  C1  LIG L   1      43.411  32.827  78.807  1.00  0.00     0.213 C 
ATOM      2  C2  LIG L   1      42.347  33.626  79.523  1.00  0.00     0.163 C 
ATOM      3  N1  LIG L   1      43.121  34.657  80.151  1.00  0.00    -0.234 N 
ATOM      4  C3  LIG L   1      44.434  34.221  80.265  1.00  0.00     0.408 C 
ATOM      5  O1  LIG L   1      45.371  34.746  80.846  1.00  0.00    -0.226 OA
ATOM      6  O2  LIG L   1      44.579  33.019  79.614  1.00  0.00    -0.444 O 
ENDROOT
BRANCH    1    7
ATOM      7  C4  LIG L   1      43.107  31.339  78.656  1.00  0.00     0.150 C 
BRANCH    7    8
ATOM      8  N2  LIG L   1      44.197  30.489  79.103  1.00  0.00    -0.312 N 
ATOM      9  C5  LIG L   1      45.353  28.943  80.550  1.00  0.00     0.109 C 
ATOM     10  C6  LIG L   1      44.108  29.728  80.246  1.00  0.00     0.210 C 
ATOM     11  O3  LIG L   1      43.108  29.697  80.955  1.00  0.00    -0.276 OA
ATOM     12  H1  LIG L   1      45.026  30.456  78.571  1.00  0.00     0.149 HD
ENDBRANCH    7    8
ENDBRANCH    1    7
BRANCH    3   13
ATOM     13  C7  LIG L   1      42.562  35.854  80.663  1.00  0.00     0.042 A 
ATOM     14  C8  LIG L   1      42.586  36.158  82.026  1.00  0.00     0.025 A 
ATOM     15  C9  LIG L   1      41.993  36.801  79.808  1.00  0.00     0.063 A 
ATOM     16 C10  LIG L   1      42.074  37.373  82.519  1.00  0.00     0.028 A 
ATOM     17 C11  LIG L   1      41.489  38.006  80.307  1.00  0.00     0.146 A 
ATOM     18 C12  LIG L   1      41.508  38.335  81.675  1.00  0.00     0.066 A 
ATOM     19  F1  LIG L   1      41.008  38.885  79.411  1.00  0.00    -0.203 F 
BRANCH   18   20
ATOM     20  N3  LIG L   1      41.040  39.573  82.134  1.00  0.00    -0.323 N 
ATOM     21 C13  LIG L   1      41.408  40.801  81.411  1.00  0.00     0.133 C 
ATOM     22 C14  LIG L   1      41.078  39.763  83.605  1.00  0.00     0.142 C 
ATOM     23 C15  LIG L   1      40.499  41.954  81.860  1.00  0.00     0.179 C 
ATOM     24 C16  LIG L   1      40.157  40.940  84.024  1.00  0.00     0.108 C 
ATOM     25  O4  LIG L   1      40.513  42.140  83.282  1.00  0.00    -0.368 OA
ATOM     26 C17  LIG L   1      38.666  40.607  83.840  1.00  0.00     0.041 C 
ATOM     27 C18  LIG L   1      40.397  41.261  85.525  1.00  0.00     0.196 C 
ATOM     28 C19  LIG L   1      37.783  41.773  84.288  1.00  0.00     0.031 C 
ATOM     29  O5  LIG L   1      39.229  41.730  86.225  1.00  0.00    -0.377 OA
ATOM     30 C20  LIG L   1      38.416  42.575  85.419  1.00  0.00     0.160 C 
ENDBRANCH   18   20
ENDBRANCH    3   13
TORSDOF 4
ENDMDL
MODEL 2
REMARK VINA RESULT:    -6.976      1.333      1.681
REMARK ITER + INTRA:           -9.182
REMARK INTER:                  -8.402
REMARK INTRA:                  -0.780
REMARK UNBOUND:                -0.575
REMARK Flexibility Score: inf
REMARK Active torsions [ 4 ] -> [ 4 ]
ROOT
ATOM      1  C1  LIG L   1      42.578  33.038  77.981  1.00  0.00     0.213 C 
ATOM      2  C2  LIG L   1      42.182  33.566  79.341  1.00  0.00     0.163 C 
ATOM      3  N1  LIG L   1      42.813  34.854  79.355  1.00  0.00    -0.234 N 
ATOM      4  C3  LIG L   1      43.853  34.851  78.435  1.00  0.00     0.408 C 
ATOM      5  O1  LIG L   1      44.703  35.704  78.233  1.00  0.00    -0.226 OA
ATOM      6  O2  LIG L   1      43.835  33.675  77.724  1.00  0.00    -0.444 O 
ENDROOT
BRANCH    1    7
ATOM      7  C4  LIG L   1      42.721  31.521  77.896  1.00  0.00     0.150 C 
BRANCH    7    8
ATOM      8  N2  LIG L   1      43.983  31.039  78.432  1.00  0.00    -0.312 N 
ATOM      9  C5  LIG L   1      45.438  29.814  79.915  1.00  0.00     0.109 C 
ATOM     10  C6  LIG L   1      44.039  30.167  79.494  1.00  0.00     0.210 C 
ATOM     11  O3  LIG L   1      43.041  29.721  80.050  1.00  0.00    -0.276 OA
ATOM     12  H1  LIG L   1      44.824  31.347  78.022  1.00  0.00     0.149 HD
ENDBRANCH    7    8
ENDBRANCH    1    7
BRANCH    3   13
ATOM     13  C7  LIG L   1      42.471  35.884  80.266  1.00  0.00     0.042 A 
ATOM     14  C8  LIG L   1      42.663  35.747  81.643  1.00  0.00     0.025 A 
ATOM     15  C9  LIG L   1      41.957  37.100  79.811  1.00  0.00     0.063 A 
ATOM     16 C10  LIG L   1      42.368  36.794  82.536  1.00  0.00     0.028 A 
ATOM     17 C11  LIG L   1      41.669  38.137  80.706  1.00  0.00     0.146 A 
ATOM     18 C12  LIG L   1      41.861  38.022  82.095  1.00  0.00     0.066 A 
ATOM     19  F1  LIG L   1      41.229  39.293  80.180  1.00  0.00    -0.203 F 
BRANCH   18   20
ATOM     20  N3  LIG L   1      41.609  39.097  82.957  1.00  0.00    -0.323 N 
ATOM     21 C13  LIG L   1      42.462  39.293  84.141  1.00  0.00     0.133 C 
ATOM     22 C14  LIG L   1      40.178  39.353  83.256  1.00  0.00     0.142 C 
ATOM     23 C15  LIG L   1      42.241  40.703  84.705  1.00  0.00     0.179 C 
ATOM     24 C16  LIG L   1      39.991  40.781  83.834  1.00  0.00     0.108 C 
ATOM     25  O4  LIG L   1      40.859  40.971  84.985  1.00  0.00    -0.368 OA
ATOM     26 C17  LIG L   1      40.238  41.873  82.778  1.00  0.00     0.041 C 
ATOM     27 C18  LIG L   1      38.533  40.932  84.351  1.00  0.00     0.196 C 
ATOM     28 C19  LIG L   1      40.018  43.267  83.367  1.00  0.00     0.031 C 
ATOM     29  O5  LIG L   1      37.992  42.259  84.217  1.00  0.00    -0.377 OA
ATOM     30 C20  LIG L   1      38.962  43.269  84.467  1.00  0.00     0.160 C 
ENDBRANCH   18   20
ENDBRANCH    3   13
TORSDOF 4
ENDMDL
MODEL 3
REMARK VINA RESULT:    -6.938      5.076     13.097
REMARK ITER + INTRA:           -9.135
REMARK INTER:                  -8.663
REMARK INTRA:                  -0.472
REMARK UNBOUND:                -0.575
REMARK Flexibility Score: inf
REMARK Active torsions [ 4 ] -> [ 4 ]
ROOT
ATOM      1  C1  LIG L   1      42.938  34.418  79.709  1.00  0.00     0.213 C 
ATOM      2  C2  LIG L   1      44.234  33.788  79.255  1.00  0.00     0.163 C 
ATOM      3  N1  LIG L   1      43.938  32.389  79.363  1.00  0.00    -0.234 N 
ATOM      4  C3  LIG L   1      42.887  32.223  80.255  1.00  0.00     0.408 C 
ATOM      5  O1  LIG L   1      42.421  31.191  80.709  1.00  0.00    -0.226 OA
ATOM      6  O2  LIG L   1      42.392  33.453  80.618  1.00  0.00    -0.444 O 
ENDROOT
BRANCH    1    7
ATOM      7  C4  LIG L   1      43.086  35.773  80.397  1.00  0.00     0.150 C 
BRANCH    7    8
ATOM      8  N2  LIG L   1      41.881  36.581  80.325  1.00  0.00    -0.312 N 
ATOM      9  C5  LIG L   1      40.571  38.604  80.212  1.00  0.00     0.109 C 
ATOM     10  C6  LIG L   1      41.926  37.954  80.248  1.00  0.00     0.210 C 
ATOM     11  O3  LIG L   1      42.974  38.590  80.217  1.00  0.00    -0.276 OA
ATOM     12  H1  LIG L   1      41.004  36.132  80.331  1.00  0.00     0.149 HD
ENDBRANCH    7    8
ENDBRANCH    1    7
BRANCH    3   13
ATOM     13  C7  LIG L   1      44.707  31.376  78.737  1.00  0.00     0.042 A 
ATOM     14  C8  LIG L   1      44.984  31.398  77.368  1.00  0.00     0.025 A 
ATOM     15  C9  LIG L   1      45.251  30.327  79.482  1.00  0.00     0.063 A 
ATOM     16 C10  LIG L   1      45.791  30.415  76.764  1.00  0.00     0.028 A 
ATOM     17 C11  LIG L   1      46.053  29.356  78.873  1.00  0.00     0.146 A 
ATOM     18 C12  LIG L   1      46.351  29.363  77.498  1.00  0.00     0.066 A 
ATOM     19  F1  LIG L   1      46.582  28.412  79.671  1.00  0.00    -0.203 F 
BRANCH   18   20
ATOM     20  N3  LIG L   1      47.199  28.404  76.930  1.00  0.00    -0.323 N 
ATOM     21 C13  LIG L   1      48.658  28.572  77.037  1.00  0.00     0.133 C 
ATOM     22 C14  LIG L   1      46.794  27.906  75.592  1.00  0.00     0.142 C 
ATOM     23 C15  LIG L   1      49.354  27.249  76.685  1.00  0.00     0.179 C 
ATOM     24 C16  LIG L   1      47.522  26.576  75.265  1.00  0.00     0.108 C 
ATOM     25  O4  LIG L   1      48.960  26.747  75.401  1.00  0.00    -0.368 OA
ATOM     26 C17  LIG L   1      47.027  25.410  76.139  1.00  0.00     0.041 C 
ATOM     27 C18  LIG L   1      47.260  26.207  73.778  1.00  0.00     0.196 C 
ATOM     28 C19  LIG L   1      47.740  24.107  75.774  1.00  0.00     0.031 C 
ATOM     29  O5  LIG L   1      47.195  24.792  73.521  1.00  0.00    -0.377 OA
ATOM     30 C20  LIG L   1      48.129  24.055  74.301  1.00  0.00     0.160 C 
ENDBRANCH   18   20
ENDBRANCH    3   13
TORSDOF 4
ENDMDL
MODEL 4
REMARK VINA RESULT:    -6.845      2.699      3.425
REMARK ITER + INTRA:           -9.020
REMARK INTER:                  -8.400
REMARK INTRA:                  -0.620
REMARK UNBOUND:                -0.575
REMARK Flexibility Score: inf
REMARK Active torsions [ 4 ] -> [ 4 ]
ROOT
ATOM      1  C1  LIG L   1      45.594  31.691  78.187  1.00  0.00     0.213 C 
ATOM      2  C2  LIG L   1      45.419  33.191  78.238  1.00  0.00     0.163 C 
ATOM      3  N1  LIG L   1      44.057  33.317  78.671  1.00  0.00    -0.234 N 
ATOM      4  C3  LIG L   1      43.384  32.140  78.373  1.00  0.00     0.408 C 
ATOM      5  O1  LIG L   1      42.193  31.891  78.467  1.00  0.00    -0.226 OA
ATOM      6  O2  LIG L   1      44.276  31.206  77.902  1.00  0.00    -0.444 O 
ENDROOT
BRANCH    1    7
ATOM      7  C4  LIG L   1      46.584  31.193  77.138  1.00  0.00     0.150 C 
BRANCH    7    8
ATOM      8  N2  LIG L   1      46.275  29.858  76.654  1.00  0.00    -0.312 N 
ATOM      9  C5  LIG L   1      46.538  27.870  75.314  1.00  0.00     0.109 C 
ATOM     10  C6  LIG L   1      47.042  29.233  75.698  1.00  0.00     0.210 C 
ATOM     11  O3  LIG L   1      48.041  29.740  75.202  1.00  0.00    -0.276 OA
ATOM     12  H1  LIG L   1      45.492  29.386  77.022  1.00  0.00     0.149 HD
ENDBRANCH    7    8
ENDBRANCH    1    7
BRANCH    3   13
ATOM     13  C7  LIG L   1      43.510  34.514  79.196  1.00  0.00     0.042 A 
ATOM     14  C8  LIG L   1      43.457  35.694  78.449  1.00  0.00     0.025 A 
ATOM     15  C9  LIG L   1      42.965  34.547  80.482  1.00  0.00     0.063 A 
ATOM     16 C10  LIG L   1      42.865  36.864  78.961  1.00  0.00     0.028 A 
ATOM     17 C11  LIG L   1      42.377  35.715  80.982  1.00  0.00     0.146 A 
ATOM     18 C12  LIG L   1      42.307  36.911  80.244  1.00  0.00     0.066 A 
ATOM     19  F1  LIG L   1      41.828  35.647  82.206  1.00  0.00    -0.203 F 
BRANCH   18   20
ATOM     20  N3  LIG L   1      41.667  38.047  80.756  1.00  0.00    -0.323 N 
ATOM     21 C13  LIG L   1      40.987  38.973  79.835  1.00  0.00     0.133 C 
ATOM     22 C14  LIG L   1      42.404  38.767  81.824  1.00  0.00     0.142 C 
ATOM     23 C15  LIG L   1      40.066  39.907  80.633  1.00  0.00     0.179 C 
ATOM     24 C16  LIG L   1      41.447  39.708  82.603  1.00  0.00     0.108 C 
ATOM     25  O4  LIG L   1      40.761  40.598  81.680  1.00  0.00    -0.368 OA
ATOM     26 C17  LIG L   1      40.435  38.928  83.462  1.00  0.00     0.041 C 
ATOM     27 C18  LIG L   1      42.284  40.613  83.549  1.00  0.00     0.196 C 
ATOM     28 C19  LIG L   1      39.525  39.880  84.241  1.00  0.00     0.031 C 
ATOM     29  O5  LIG L   1      41.621  40.959  84.779  1.00  0.00    -0.377 OA
ATOM     30 C20  LIG L   1      40.227  41.185  84.599  1.00  0.00     0.160 C 
ENDBRANCH   18   20
ENDBRANCH    3   13
TORSDOF 4
ENDMDL
MODEL 5
REMARK VINA RESULT:    -6.826      4.829     12.629
REMARK ITER + INTRA:           -8.998
REMARK INTER:                  -8.602
REMARK INTRA:                  -0.396
REMARK UNBOUND:                -0.575
REMARK Flexibility Score: inf
REMARK Active torsions [ 4 ] -> [ 4 ]
ROOT
ATOM      1  C1  LIG L   1      42.657  35.467  79.009  1.00  0.00     0.213 C 
ATOM      2  C2  LIG L   1      43.945  34.688  79.145  1.00  0.00     0.163 C 
ATOM      3  N1  LIG L   1      43.565  33.397  78.648  1.00  0.00    -0.234 N 
ATOM      4  C3  LIG L   1      42.186  33.270  78.745  1.00  0.00     0.408 C 
ATOM      5  O1  LIG L   1      41.489  32.289  78.542  1.00  0.00    -0.226 OA
ATOM      6  O2  LIG L   1      41.640  34.467  79.144  1.00  0.00    -0.444 O 
ENDROOT
BRANCH    1    7
ATOM      7  C4  LIG L   1      42.460  36.571  80.045  1.00  0.00     0.150 C 
BRANCH    7    8
ATOM      8  N2  LIG L   1      41.862  37.772  79.487  1.00  0.00    -0.312 N 
ATOM      9  C5  LIG L   1      40.421  39.705  79.420  1.00  0.00     0.109 C 
ATOM     10  C6  LIG L   1      40.940  38.519  80.183  1.00  0.00     0.210 C 
ATOM     11  O3  LIG L   1      40.572  38.242  81.319  1.00  0.00    -0.276 OA
ATOM     12  H1  LIG L   1      42.125  38.060  78.582  1.00  0.00     0.149 HD
ENDBRANCH    7    8
ENDBRANCH    1    7
BRANCH    3   13
ATOM     13  C7  LIG L   1      44.498  32.406  78.251  1.00  0.00     0.042 A 
ATOM     14  C8  LIG L   1      44.490  31.122  78.800  1.00  0.00     0.025 A 
ATOM     15  C9  LIG L   1      45.443  32.671  77.258  1.00  0.00     0.063 A 
ATOM     16 C10  LIG L   1      45.387  30.128  78.362  1.00  0.00     0.028 A 
ATOM     17 C11  LIG L   1      46.329  31.677  76.828  1.00  0.00     0.146 A 
ATOM     18 C12  LIG L   1      46.335  30.375  77.363  1.00  0.00     0.066 A 
ATOM     19  F1  LIG L   1      47.171  31.998  75.831  1.00  0.00    -0.203 F 
BRANCH   18   20
ATOM     20  N3  LIG L   1      47.202  29.390  76.874  1.00  0.00    -0.323 N 
ATOM     21 C13  LIG L   1      48.657  29.569  77.016  1.00  0.00     0.133 C 
ATOM     22 C14  LIG L   1      46.840  28.820  75.553  1.00  0.00     0.142 C 
ATOM     23 C15  LIG L   1      49.366  28.232  76.758  1.00  0.00     0.179 C 
ATOM     24 C16  LIG L   1      47.581  27.477  75.320  1.00  0.00     0.108 C 
ATOM     25  O4  LIG L   1      49.014  27.661  75.490  1.00  0.00    -0.368 OA
ATOM     26 C17  LIG L   1      47.062  26.358  76.240  1.00  0.00     0.041 C 
ATOM     27 C18  LIG L   1      47.366  27.028  73.848  1.00  0.00     0.196 C 
ATOM     28 C19  LIG L   1      47.789  25.040  75.968  1.00  0.00     0.031 C 
ATOM     29  O5  LIG L   1      47.312  25.601  73.665  1.00  0.00    -0.377 OA
ATOM     30 C20  LIG L   1      48.223  24.910  74.512  1.00  0.00     0.160 C 
ENDBRANCH   18   20
ENDBRANCH    3   13
TORSDOF 4
ENDMDL
MODEL 6
REMARK VINA RESULT:    -6.792      4.726     12.655
REMARK ITER + INTRA:           -8.955
REMARK INTER:                  -8.375
REMARK INTRA:                  -0.580
REMARK UNBOUND:                -0.575
REMARK Flexibility Score: inf
REMARK Active torsions [ 4 ] -> [ 4 ]
ROOT
ATOM      1  C1  LIG L   1      42.672  35.410  79.101  1.00  0.00     0.213 C 
ATOM      2  C2  LIG L   1      43.921  34.570  79.244  1.00  0.00     0.163 C 
ATOM      3  N1  LIG L   1      43.461  33.279  78.822  1.00  0.00    -0.234 N 
ATOM      4  C3  LIG L   1      42.081  33.231  78.960  1.00  0.00     0.408 C 
ATOM      5  O1  LIG L   1      41.328  32.279  78.825  1.00  0.00    -0.226 OA
ATOM      6  O2  LIG L   1      41.609  34.473  79.313  1.00  0.00    -0.444 O 
ENDROOT
BRANCH    1    7
ATOM      7  C4  LIG L   1      42.562  36.572  80.085  1.00  0.00     0.150 C 
BRANCH    7    8
ATOM      8  N2  LIG L   1      41.923  37.743  79.509  1.00  0.00    -0.312 N 
ATOM      9  C5  LIG L   1      40.413  39.622  79.413  1.00  0.00     0.109 C 
ATOM     10  C6  LIG L   1      40.973  38.466  80.194  1.00  0.00     0.210 C 
ATOM     11  O3  LIG L   1      40.612  38.191  81.333  1.00  0.00    -0.276 OA
ATOM     12  H1  LIG L   1      42.177  38.028  78.601  1.00  0.00     0.149 HD
ENDBRANCH    7    8
ENDBRANCH    1    7
BRANCH    3   13
ATOM     13  C7  LIG L   1      44.329  32.221  78.451  1.00  0.00     0.042 A 
ATOM     14  C8  LIG L   1      45.116  32.280  77.299  1.00  0.00     0.025 A 
ATOM     15  C9  LIG L   1      44.457  31.087  79.256  1.00  0.00     0.063 A 
ATOM     16 C10  LIG L   1      46.013  31.247  76.967  1.00  0.00     0.028 A 
ATOM     17 C11  LIG L   1      45.353  30.066  78.918  1.00  0.00     0.146 A 
ATOM     18 C12  LIG L   1      46.159  30.108  77.766  1.00  0.00     0.066 A 
ATOM     19  F1  LIG L   1      45.454  29.034  79.774  1.00  0.00    -0.203 F 
BRANCH   18   20
ATOM     20  N3  LIG L   1      47.082  29.092  77.485  1.00  0.00    -0.323 N 
ATOM     21 C13  LIG L   1      48.389  29.090  78.165  1.00  0.00     0.133 C 
ATOM     22 C14  LIG L   1      47.201  28.715  76.055  1.00  0.00     0.142 C 
ATOM     23 C15  LIG L   1      49.057  27.720  77.989  1.00  0.00     0.179 C 
ATOM     24 C16  LIG L   1      47.889  27.332  75.913  1.00  0.00     0.108 C 
ATOM     25  O4  LIG L   1      49.164  27.335  76.612  1.00  0.00    -0.368 OA
ATOM     26 C17  LIG L   1      46.995  26.183  76.414  1.00  0.00     0.041 C 
ATOM     27 C18  LIG L   1      48.207  27.075  74.414  1.00  0.00     0.196 C 
ATOM     28 C19  LIG L   1      47.687  24.830  76.235  1.00  0.00     0.031 C 
ATOM     29  O5  LIG L   1      48.134  25.692  74.021  1.00  0.00    -0.377 OA
ATOM     30 C20  LIG L   1      48.621  24.814  75.030  1.00  0.00     0.160 C 
ENDBRANCH   18   20
ENDBRANCH    3   13
TORSDOF 4
ENDMDL
MODEL 7
REMARK VINA RESULT:    -6.722      2.231     10.041
REMARK ITER + INTRA:           -8.868
REMARK INTER:                  -8.189
REMARK INTRA:                  -0.679
REMARK UNBOUND:                -0.575
REMARK Flexibility Score: inf
REMARK Active torsions [ 4 ] -> [ 4 ]
ROOT
ATOM      1  C1  LIG L   1      38.823  41.289  84.323  1.00  0.00     0.213 C 
ATOM      2  C2  LIG L   1      38.966  40.553  83.011  1.00  0.00     0.163 C 
ATOM      3  N1  LIG L   1      40.354  40.193  83.021  1.00  0.00    -0.234 N 
ATOM      4  C3  LIG L   1      41.029  41.045  83.884  1.00  0.00     0.408 C 
ATOM      5  O1  LIG L   1      42.230  41.148  84.079  1.00  0.00    -0.226 OA
ATOM      6  O2  LIG L   1      40.126  41.845  84.542  1.00  0.00    -0.444 O 
ENDROOT
BRANCH    1    7
ATOM      7  C4  LIG L   1      37.766  42.390  84.334  1.00  0.00     0.150 C 
BRANCH    7    8
ATOM      8  N2  LIG L   1      36.408  41.872  84.334  1.00  0.00    -0.312 N 
ATOM      9  C5  LIG L   1      34.083  41.749  84.964  1.00  0.00     0.109 C 
ATOM     10  C6  LIG L   1      35.407  42.453  85.078  1.00  0.00     0.210 C 
ATOM     11  O3  LIG L   1      35.577  43.448  85.773  1.00  0.00    -0.276 OA
ATOM     12  H1  LIG L   1      36.199  41.082  83.785  1.00  0.00     0.149 HD
ENDBRANCH    7    8
ENDBRANCH    1    7
BRANCH    3   13
ATOM     13  C7  LIG L   1      40.912  39.201  82.176  1.00  0.00     0.042 A 
ATOM     14  C8  LIG L   1      41.104  39.418  80.809  1.00  0.00     0.025 A 
ATOM     15  C9  LIG L   1      41.328  37.973  82.692  1.00  0.00     0.063 A 
ATOM     16 C10  LIG L   1      41.705  38.447  79.987  1.00  0.00     0.028 A 
ATOM     17 C11  LIG L   1      41.926  37.014  81.868  1.00  0.00     0.146 A 
ATOM     18 C12  LIG L   1      42.135  37.214  80.490  1.00  0.00     0.066 A 
ATOM     19  F1  LIG L   1      42.347  35.880  82.454  1.00  0.00    -0.203 F 
BRANCH   18   20
ATOM     20  N3  LIG L   1      42.784  36.253  79.704  1.00  0.00    -0.323 N 
ATOM     21 C13  LIG L   1      43.764  36.684  78.693  1.00  0.00     0.133 C 
ATOM     22 C14  LIG L   1      41.924  35.149  79.208  1.00  0.00     0.142 C 
ATOM     23 C15  LIG L   1      44.594  35.477  78.235  1.00  0.00     0.179 C 
ATOM     24 C16  LIG L   1      42.794  33.951  78.745  1.00  0.00     0.108 C 
ATOM     25  O4  LIG L   1      43.776  34.395  77.768  1.00  0.00    -0.368 OA
ATOM     26 C17  LIG L   1      43.481  33.240  79.924  1.00  0.00     0.041 C 
ATOM     27 C18  LIG L   1      41.888  32.917  78.021  1.00  0.00     0.196 C 
ATOM     28 C19  LIG L   1      44.307  32.046  79.441  1.00  0.00     0.031 C 
ATOM     29  O5  LIG L   1      42.298  31.547  78.192  1.00  0.00    -0.377 OA
ATOM     30 C20  LIG L   1      43.714  31.400  78.194  1.00  0.00     0.160 C 
ENDBRANCH   18   20
ENDBRANCH    3   13
TORSDOF 4
ENDMDL
MODEL 8
REMARK VINA RESULT:    -6.667      2.680      4.111
REMARK ITER + INTRA:           -8.800
REMARK INTER:                  -8.257
REMARK INTRA:                  -0.543
REMARK UNBOUND:                -0.575
REMARK Flexibility Score: inf
REMARK Active torsions [ 4 ] -> [ 4 ]
ROOT
ATOM      1  C1  LIG L   1      45.478  30.953  78.362  1.00  0.00     0.213 C 
ATOM      2  C2  LIG L   1      44.987  32.365  78.136  1.00  0.00     0.163 C 
ATOM      3  N1  LIG L   1      44.041  32.524  79.204  1.00  0.00    -0.234 N 
ATOM      4  C3  LIG L   1      43.626  31.267  79.622  1.00  0.00     0.408 C 
ATOM      5  O1  LIG L   1      42.746  30.974  80.416  1.00  0.00    -0.226 OA
ATOM      6  O2  LIG L   1      44.361  30.301  78.979  1.00  0.00    -0.444 O 
ENDROOT
BRANCH    1    7
ATOM      7  C4  LIG L   1      45.898  30.208  77.097  1.00  0.00     0.150 C 
BRANCH    7    8
ATOM      8  N2  LIG L   1      46.612  28.974  77.377  1.00  0.00    -0.312 N 
ATOM      9  C5  LIG L   1      47.554  26.803  76.909  1.00  0.00     0.109 C 
ATOM     10  C6  LIG L   1      46.822  28.018  76.410  1.00  0.00     0.210 C 
ATOM     11  O3  LIG L   1      46.445  28.142  75.251  1.00  0.00    -0.276 OA
ATOM     12  H1  LIG L   1      46.956  28.817  78.287  1.00  0.00     0.149 HD
ENDBRANCH    7    8
ENDBRANCH    1    7
BRANCH    3   13
ATOM     13  C7  LIG L   1      43.554  33.783  79.636  1.00  0.00     0.042 A 
ATOM     14  C8  LIG L   1      42.532  34.453  78.958  1.00  0.00     0.025 A 
ATOM     15  C9  LIG L   1      44.059  34.388  80.789  1.00  0.00     0.063 A 
ATOM     16 C10  LIG L   1      42.019  35.678  79.424  1.00  0.00     0.028 A 
ATOM     17 C11  LIG L   1      43.541  35.605  81.246  1.00  0.00     0.146 A 
ATOM     18 C12  LIG L   1      42.508  36.293  80.583  1.00  0.00     0.066 A 
ATOM     19  F1  LIG L   1      44.045  36.091  82.393  1.00  0.00    -0.203 F 
BRANCH   18   20
ATOM     20  N3  LIG L   1      41.980  37.484  81.095  1.00  0.00    -0.323 N 
ATOM     21 C13  LIG L   1      41.294  37.472  82.398  1.00  0.00     0.133 C 
ATOM     22 C14  LIG L   1      41.284  38.349  80.110  1.00  0.00     0.142 C 
ATOM     23 C15  LIG L   1      41.140  38.910  82.911  1.00  0.00     0.179 C 
ATOM     24 C16  LIG L   1      41.136  39.791  80.664  1.00  0.00     0.108 C 
ATOM     25  O4  LIG L   1      40.483  39.763  81.963  1.00  0.00    -0.368 OA
ATOM     26 C17  LIG L   1      42.487  40.524  80.748  1.00  0.00     0.041 C 
ATOM     27 C18  LIG L   1      40.206  40.603  79.720  1.00  0.00     0.196 C 
ATOM     28 C19  LIG L   1      42.307  41.951  81.268  1.00  0.00     0.031 C 
ATOM     29  O5  LIG L   1      40.532  42.002  79.628  1.00  0.00    -0.377 OA
ATOM     30 C20  LIG L   1      40.959  42.544  80.872  1.00  0.00     0.160 C 
ENDBRANCH   18   20
ENDBRANCH    3   13
TORSDOF 4
ENDMDL
MODEL 9
REMARK VINA RESULT:    -6.657      1.989      2.530
REMARK ITER + INTRA:           -8.789
REMARK INTER:                  -8.226
REMARK INTRA:                  -0.563
REMARK UNBOUND:                -0.575
REMARK Flexibility Score: inf
REMARK Active torsions [ 4 ] -> [ 4 ]
ROOT
ATOM      1  C1  LIG L   1      43.484  31.859  78.356  1.00  0.00     0.213 C 
ATOM      2  C2  LIG L   1      43.902  33.166  78.990  1.00  0.00     0.163 C 
ATOM      3  N1  LIG L   1      42.659  33.881  79.042  1.00  0.00    -0.234 N 
ATOM      4  C3  LIG L   1      41.794  33.341  78.101  1.00  0.00     0.408 C 
ATOM      5  O1  LIG L   1      40.695  33.740  77.750  1.00  0.00    -0.226 OA
ATOM      6  O2  LIG L   1      42.362  32.221  77.542  1.00  0.00    -0.444 O 
ENDROOT
BRANCH    1    7
ATOM      7  C4  LIG L   1      44.558  31.181  77.511  1.00  0.00     0.150 C 
BRANCH    7    8
ATOM      8  N2  LIG L   1      45.415  30.297  78.284  1.00  0.00    -0.312 N 
ATOM      9  C5  LIG L   1      47.058  28.571  78.658  1.00  0.00     0.109 C 
ATOM     10  C6  LIG L   1      46.284  29.415  77.684  1.00  0.00     0.210 C 
ATOM     11  O3  LIG L   1      46.413  29.321  76.469  1.00  0.00    -0.276 OA
ATOM     12  H1  LIG L   1      45.372  30.331  79.267  1.00  0.00     0.149 HD
ENDBRANCH    7    8
ENDBRANCH    1    7
BRANCH    3   13
ATOM     13  C7  LIG L   1      42.448  35.023  79.855  1.00  0.00     0.042 A 
ATOM     14  C8  LIG L   1      42.490  34.957  81.250  1.00  0.00     0.025 A 
ATOM     15  C9  LIG L   1      42.224  36.277  79.281  1.00  0.00     0.063 A 
ATOM     16 C10  LIG L   1      42.330  36.106  82.047  1.00  0.00     0.028 A 
ATOM     17 C11  LIG L   1      42.067  37.414  80.082  1.00  0.00     0.146 A 
ATOM     18 C12  LIG L   1      42.113  37.371  81.487  1.00  0.00     0.066 A 
ATOM     19  F1  LIG L   1      41.910  38.590  79.450  1.00  0.00    -0.203 F 
BRANCH   18   20
ATOM     20  N3  LIG L   1      42.003  38.536  82.257  1.00  0.00    -0.323 N 
ATOM     21 C13  LIG L   1      43.086  38.896  83.188  1.00  0.00     0.133 C 
ATOM     22 C14  LIG L   1      40.662  38.791  82.840  1.00  0.00     0.142 C 
ATOM     23 C15  LIG L   1      42.922  40.358  83.624  1.00  0.00     0.179 C 
ATOM     24 C16  LIG L   1      40.535  40.274  83.280  1.00  0.00     0.108 C 
ATOM     25  O4  LIG L   1      41.625  40.624  84.176  1.00  0.00    -0.368 OA
ATOM     26 C17  LIG L   1      40.486  41.235  82.079  1.00  0.00     0.041 C 
ATOM     27 C18  LIG L   1      39.222  40.451  84.091  1.00  0.00     0.196 C 
ATOM     28 C19  LIG L   1      40.330  42.685  82.540  1.00  0.00     0.031 C 
ATOM     29  O5  LIG L   1      38.597  41.738  83.934  1.00  0.00    -0.377 OA
ATOM     30 C20  LIG L   1      39.545  42.795  83.843  1.00  0.00     0.160 C 
ENDBRANCH   18   20
ENDBRANCH    3   13
TORSDOF 4
ENDMDL
MODEL 10
REMARK VINA RESULT:    -6.643      4.101     11.891
REMARK ITER + INTRA:           -8.772
REMARK INTER:                  -8.170
REMARK INTRA:                  -0.602
REMARK UNBOUND:                -0.575
REMARK Flexibility Score: inf
REMARK Active torsions [ 4 ] -> [ 4 ]
ROOT
ATOM      1  C1  LIG L   1      42.633  36.343  80.798  1.00  0.00     0.213 C 
ATOM      2  C2  LIG L   1      43.262  34.980  80.972  1.00  0.00     0.163 C 
ATOM      3  N1  LIG L   1      43.166  34.436  79.648  1.00  0.00    -0.234 N 
ATOM      4  C3  LIG L   1      42.160  35.105  78.964  1.00  0.00     0.408 C 
ATOM      5  O1  LIG L   1      41.687  34.863  77.865  1.00  0.00    -0.226 OA
ATOM      6  O2  LIG L   1      41.698  36.150  79.729  1.00  0.00    -0.444 O 
ENDROOT
BRANCH    1    7
ATOM      7  C4  LIG L   1      41.923  36.888  82.034  1.00  0.00     0.150 C 
BRANCH    7    8
ATOM      8  N2  LIG L   1      40.860  37.824  81.711  1.00  0.00    -0.312 N 
ATOM      9  C5  LIG L   1      39.715  39.948  81.659  1.00  0.00     0.109 C 
ATOM     10  C6  LIG L   1      40.929  39.155  82.057  1.00  0.00     0.210 C 
ATOM     11  O3  LIG L   1      41.888  39.648  82.639  1.00  0.00    -0.276 OA
ATOM     12  H1  LIG L   1      40.065  37.497  81.230  1.00  0.00     0.149 HD
ENDBRANCH    7    8
ENDBRANCH    1    7
BRANCH    3   13
ATOM     13  C7  LIG L   1      43.915  33.317  79.206  1.00  0.00     0.042 A 
ATOM     14  C8  LIG L   1      45.152  33.459  78.574  1.00  0.00     0.025 A 
ATOM     15  C9  LIG L   1      43.452  32.017  79.422  1.00  0.00     0.063 A 
ATOM     16 C10  LIG L   1      45.912  32.340  78.184  1.00  0.00     0.028 A 
ATOM     17 C11  LIG L   1      44.216  30.911  79.032  1.00  0.00     0.146 A 
ATOM     18 C12  LIG L   1      45.467  31.031  78.400  1.00  0.00     0.066 A 
ATOM     19  F1  LIG L   1      43.724  29.695  79.326  1.00  0.00    -0.203 F 
BRANCH   18   20
ATOM     20  N3  LIG L   1      46.228  29.902  78.069  1.00  0.00    -0.323 N 
ATOM     21 C13  LIG L   1      46.728  29.025  79.141  1.00  0.00     0.133 C 
ATOM     22 C14  LIG L   1      47.238  30.105  77.001  1.00  0.00     0.142 C 
ATOM     23 C15  LIG L   1      47.195  27.693  78.538  1.00  0.00     0.179 C 
ATOM     24 C16  LIG L   1      47.695  28.740  76.421  1.00  0.00     0.108 C 
ATOM     25  O4  LIG L   1      48.161  27.873  77.492  1.00  0.00    -0.368 OA
ATOM     26 C17  LIG L   1      46.585  28.052  75.606  1.00  0.00     0.041 C 
ATOM     27 C18  LIG L   1      48.910  28.970  75.481  1.00  0.00     0.196 C 
ATOM     28 C19  LIG L   1      47.073  26.725  75.023  1.00  0.00     0.031 C 
ATOM     29  O5  LIG L   1      48.979  28.060  74.367  1.00  0.00    -0.377 OA
ATOM     30 C20  LIG L   1      48.567  26.744  74.715  1.00  0.00     0.160 C 
ENDBRANCH   18   20
ENDBRANCH    3   13
TORSDOF 4
ENDMDL
MODEL 11
REMARK VINA RESULT:    -6.639      1.296      1.516
REMARK ITER + INTRA:           -8.766
REMARK INTER:                  -8.266
REMARK INTRA:                  -0.500
REMARK UNBOUND:                -0.575
REMARK Flexibility Score: inf
REMARK Active torsions [ 4 ] -> [ 4 ]
ROOT
ATOM      1  C1  LIG L   1      43.596  33.072  77.616  1.00  0.00     0.213 C 
ATOM      2  C2  LIG L   1      42.755  33.824  78.621  1.00  0.00     0.163 C 
ATOM      3  N1  LIG L   1      43.588  34.953  78.921  1.00  0.00    -0.234 N 
ATOM      4  C3  LIG L   1      44.902  34.633  78.604  1.00  0.00     0.408 C 
ATOM      5  O1  LIG L   1      45.920  35.269  78.821  1.00  0.00    -0.226 OA
ATOM      6  O2  LIG L   1      44.940  33.409  77.980  1.00  0.00    -0.444 O 
ENDROOT
BRANCH    1    7
ATOM      7  C4  LIG L   1      43.407  31.557  77.623  1.00  0.00     0.150 C 
BRANCH    7    8
ATOM      8  N2  LIG L   1      44.445  30.859  78.361  1.00  0.00    -0.312 N 
ATOM      9  C5  LIG L   1      45.380  29.489  80.112  1.00  0.00     0.109 C 
ATOM     10  C6  LIG L   1      44.165  30.104  79.477  1.00  0.00     0.210 C 
ATOM     11  O3  LIG L   1      43.031  29.951  79.917  1.00  0.00    -0.276 OA
ATOM     12  H1  LIG L   1      45.378  30.927  78.053  1.00  0.00     0.149 HD
ENDBRANCH    7    8
ENDBRANCH    1    7
BRANCH    3   13
ATOM     13  C7  LIG L   1      43.114  36.130  79.552  1.00  0.00     0.042 A 
ATOM     14  C8  LIG L   1      43.366  37.401  79.030  1.00  0.00     0.025 A 
ATOM     15  C9  LIG L   1      42.339  36.058  80.711  1.00  0.00     0.063 A 
ATOM     16 C10  LIG L   1      42.847  38.562  79.635  1.00  0.00     0.028 A 
ATOM     17 C11  LIG L   1      41.826  37.216  81.304  1.00  0.00     0.146 A 
ATOM     18 C12  LIG L   1      42.062  38.505  80.792  1.00  0.00     0.066 A 
ATOM     19  F1  LIG L   1      41.045  37.055  82.386  1.00  0.00    -0.203 F 
BRANCH   18   20
ATOM     20  N3  LIG L   1      41.491  39.640  81.383  1.00  0.00    -0.323 N 
ATOM     21 C13  LIG L   1      41.545  40.931  80.675  1.00  0.00     0.133 C 
ATOM     22 C14  LIG L   1      41.739  39.795  82.838  1.00  0.00     0.142 C 
ATOM     23 C15  LIG L   1      40.556  41.911  81.321  1.00  0.00     0.179 C 
ATOM     24 C16  LIG L   1      40.731  40.799  83.456  1.00  0.00     0.108 C 
ATOM     25  O4  LIG L   1      40.773  42.059  82.731  1.00  0.00    -0.368 OA
ATOM     26 C17  LIG L   1      39.298  40.238  83.492  1.00  0.00     0.041 C 
ATOM     27 C18  LIG L   1      41.161  41.114  84.916  1.00  0.00     0.196 C 
ATOM     28 C19  LIG L   1      38.332  41.236  84.133  1.00  0.00     0.031 C 
ATOM     29  O5  LIG L   1      40.065  41.372  85.814  1.00  0.00    -0.377 OA
ATOM     30 C20  LIG L   1      39.012  42.099  85.191  1.00  0.00     0.160 C 
ENDBRANCH   18   20
ENDBRANCH    3   13
TORSDOF 4
ENDMDL
MODEL 12
REMARK VINA RESULT:    -6.575      2.176      9.937
REMARK ITER + INTRA:           -8.688
REMARK INTER:                  -8.018
REMARK INTRA:                  -0.670
REMARK UNBOUND:                -0.575
REMARK Flexibility Score: inf
REMARK Active torsions [ 4 ] -> [ 4 ]
ROOT
ATOM      1  C1  LIG L   1      40.831  42.249  83.877  1.00  0.00     0.213 C 
ATOM      2  C2  LIG L   1      41.709  41.050  83.601  1.00  0.00     0.163 C 
ATOM      3  N1  LIG L   1      40.897  40.290  82.695  1.00  0.00    -0.234 N 
ATOM      4  C3  LIG L   1      39.571  40.670  82.859  1.00  0.00     0.408 C 
ATOM      5  O1  LIG L   1      38.566  40.180  82.369  1.00  0.00    -0.226 OA
ATOM      6  O2  LIG L   1      39.501  41.738  83.721  1.00  0.00    -0.444 O 
ENDROOT
BRANCH    1    7
ATOM      7  C4  LIG L   1      41.004  42.868  85.262  1.00  0.00     0.150 C 
BRANCH    7    8
ATOM      8  N2  LIG L   1      39.742  43.089  85.946  1.00  0.00    -0.312 N 
ATOM      9  C5  LIG L   1      38.041  42.752  87.624  1.00  0.00     0.109 C 
ATOM     10  C6  LIG L   1      39.401  42.400  87.088  1.00  0.00     0.210 C 
ATOM     11  O3  LIG L   1      40.134  41.572  87.616  1.00  0.00    -0.276 OA
ATOM     12  H1  LIG L   1      39.111  43.752  85.582  1.00  0.00     0.149 HD
ENDBRANCH    7    8
ENDBRANCH    1    7
BRANCH    3   13
ATOM     13  C7  LIG L   1      41.401  39.247  81.879  1.00  0.00     0.042 A 
ATOM     14  C8  LIG L   1      41.858  39.480  80.579  1.00  0.00     0.025 A 
ATOM     15  C9  LIG L   1      41.494  37.940  82.364  1.00  0.00     0.063 A 
ATOM     16 C10  LIG L   1      42.405  38.448  79.794  1.00  0.00     0.028 A 
ATOM     17 C11  LIG L   1      42.041  36.921  81.577  1.00  0.00     0.146 A 
ATOM     18 C12  LIG L   1      42.514  37.136  80.269  1.00  0.00     0.066 A 
ATOM     19  F1  LIG L   1      42.145  35.704  82.138  1.00  0.00    -0.203 F 
BRANCH   18   20
ATOM     20  N3  LIG L   1      43.101  36.103  79.527  1.00  0.00    -0.323 N 
ATOM     21 C13  LIG L   1      44.031  36.433  78.434  1.00  0.00     0.133 C 
ATOM     22 C14  LIG L   1      42.198  34.982  79.168  1.00  0.00     0.142 C 
ATOM     23 C15  LIG L   1      44.814  35.176  78.029  1.00  0.00     0.179 C 
ATOM     24 C16  LIG L   1      43.021  33.733  78.754  1.00  0.00     0.108 C 
ATOM     25  O4  LIG L   1      43.955  34.078  77.694  1.00  0.00    -0.368 OA
ATOM     26 C17  LIG L   1      43.761  33.102  79.947  1.00  0.00     0.041 C 
ATOM     27 C18  LIG L   1      42.059  32.664  78.165  1.00  0.00     0.196 C 
ATOM     28 C19  LIG L   1      44.539  31.857  79.517  1.00  0.00     0.031 C 
ATOM     29  O5  LIG L   1      42.456  31.304  78.421  1.00  0.00    -0.377 OA
ATOM     30 C20  LIG L   1      43.866  31.128  78.358  1.00  0.00     0.160 C 
ENDBRANCH   18   20
ENDBRANCH    3   13
TORSDOF 4
ENDMDL
MODEL 13
REMARK VINA RESULT:    -6.555      3.111      4.440
REMARK ITER + INTRA:           -8.663
REMARK INTER:                  -8.054
REMARK INTRA:                  -0.608
REMARK UNBOUND:                -0.575
REMARK Flexibility Score: inf
REMARK Active torsions [ 4 ] -> [ 4 ]
ROOT
ATOM      1  C1  LIG L   1      44.860  30.584  79.613  1.00  0.00     0.213 C 
ATOM      2  C2  LIG L   1      45.152  32.066  79.569  1.00  0.00     0.163 C 
ATOM      3  N1  LIG L   1      43.858  32.616  79.283  1.00  0.00    -0.234 N 
ATOM      4  C3  LIG L   1      43.075  31.630  78.697  1.00  0.00     0.408 C 
ATOM      5  O1  LIG L   1      41.964  31.726  78.200  1.00  0.00    -0.226 OA
ATOM      6  O2  LIG L   1      43.748  30.432  78.722  1.00  0.00    -0.444 O 
ENDROOT
BRANCH    1    7
ATOM      7  C4  LIG L   1      46.016  29.686  79.179  1.00  0.00     0.150 C 
BRANCH    7    8
ATOM      8  N2  LIG L   1      46.101  29.528  77.738  1.00  0.00    -0.312 N 
ATOM      9  C5  LIG L   1      46.793  28.526  75.655  1.00  0.00     0.109 C 
ATOM     10  C6  LIG L   1      46.802  28.495  77.158  1.00  0.00     0.210 C 
ATOM     11  O3  LIG L   1      47.383  27.631  77.805  1.00  0.00    -0.276 OA
ATOM     12  H1  LIG L   1      45.644  30.179  77.158  1.00  0.00     0.149 HD
ENDBRANCH    7    8
ENDBRANCH    1    7
BRANCH    3   13
ATOM     13  C7  LIG L   1      43.529  33.981  79.473  1.00  0.00     0.042 A 
ATOM     14  C8  LIG L   1      43.713  34.933  78.467  1.00  0.00     0.025 A 
ATOM     15  C9  LIG L   1      42.966  34.420  80.673  1.00  0.00     0.063 A 
ATOM     16 C10  LIG L   1      43.335  36.277  78.648  1.00  0.00     0.028 A 
ATOM     17 C11  LIG L   1      42.592  35.757  80.843  1.00  0.00     0.146 A 
ATOM     18 C12  LIG L   1      42.762  36.731  79.841  1.00  0.00     0.066 A 
ATOM     19  F1  LIG L   1      42.008  36.086  82.008  1.00  0.00    -0.203 F 
BRANCH   18   20
ATOM     20  N3  LIG L   1      42.330  38.051  80.026  1.00  0.00    -0.323 N 
ATOM     21 C13  LIG L   1      40.897  38.322  80.233  1.00  0.00     0.133 C 
ATOM     22 C14  LIG L   1      42.963  39.060  79.141  1.00  0.00     0.142 C 
ATOM     23 C15  LIG L   1      40.718  39.748  80.773  1.00  0.00     0.179 C 
ATOM     24 C16  LIG L   1      42.754  40.488  79.710  1.00  0.00     0.108 C 
ATOM     25  O4  LIG L   1      41.339  40.733  79.937  1.00  0.00    -0.368 OA
ATOM     26 C17  LIG L   1      43.562  40.725  80.999  1.00  0.00     0.041 C 
ATOM     27 C18  LIG L   1      43.219  41.528  78.653  1.00  0.00     0.196 C 
ATOM     28 C19  LIG L   1      43.360  42.149  81.520  1.00  0.00     0.031 C 
ATOM     29  O5  LIG L   1      43.779  42.731  79.211  1.00  0.00    -0.377 OA
ATOM     30 C20  LIG L   1      43.106  43.146  80.394  1.00  0.00     0.160 C 
ENDBRANCH   18   20
ENDBRANCH    3   13
TORSDOF 4
ENDMDL
MODEL 14
REMARK VINA RESULT:    -6.553      2.836      3.994
REMARK ITER + INTRA:           -8.660
REMARK INTER:                  -7.988
REMARK INTRA:                  -0.673
REMARK UNBOUND:                -0.575
REMARK Flexibility Score: inf
REMARK Active torsions [ 4 ] -> [ 4 ]
ROOT
ATOM      1  C1  LIG L   1      46.076  30.380  78.168  1.00  0.00     0.213 C 
ATOM      2  C2  LIG L   1      45.663  31.827  78.030  1.00  0.00     0.163 C 
ATOM      3  N1  LIG L   1      44.741  31.977  79.119  1.00  0.00    -0.234 N 
ATOM      4  C3  LIG L   1      44.260  30.724  79.472  1.00  0.00     0.408 C 
ATOM      5  O1  LIG L   1      43.375  30.435  80.262  1.00  0.00    -0.226 OA
ATOM      6  O2  LIG L   1      44.932  29.756  78.764  1.00  0.00    -0.444 O 
ENDROOT
BRANCH    1    7
ATOM      7  C4  LIG L   1      46.438  29.686  76.857  1.00  0.00     0.150 C 
BRANCH    7    8
ATOM      8  N2  LIG L   1      46.836  28.301  77.040  1.00  0.00    -0.312 N 
ATOM      9  C5  LIG L   1      47.244  26.009  76.405  1.00  0.00     0.109 C 
ATOM     10  C6  LIG L   1      46.826  27.396  76.003  1.00  0.00     0.210 C 
ATOM     11  O3  LIG L   1      46.503  27.691  74.858  1.00  0.00    -0.276 OA
ATOM     12  H1  LIG L   1      47.122  28.000  77.933  1.00  0.00     0.149 HD
ENDBRANCH    7    8
ENDBRANCH    1    7
BRANCH    3   13
ATOM     13  C7  LIG L   1      44.331  33.235  79.629  1.00  0.00     0.042 A 
ATOM     14  C8  LIG L   1      45.097  33.941  80.559  1.00  0.00     0.025 A 
ATOM     15  C9  LIG L   1      43.150  33.835  79.186  1.00  0.00     0.063 A 
ATOM     16 C10  LIG L   1      44.707  35.213  81.021  1.00  0.00     0.028 A 
ATOM     17 C11  LIG L   1      42.771  35.100  79.649  1.00  0.00     0.146 A 
ATOM     18 C12  LIG L   1      43.531  35.831  80.581  1.00  0.00     0.066 A 
ATOM     19  F1  LIG L   1      41.649  35.629  79.133  1.00  0.00    -0.203 F 
BRANCH   18   20
ATOM     20  N3  LIG L   1      43.148  37.117  80.985  1.00  0.00    -0.323 N 
ATOM     21 C13  LIG L   1      44.172  38.165  81.136  1.00  0.00     0.133 C 
ATOM     22 C14  LIG L   1      42.137  37.169  82.070  1.00  0.00     0.142 C 
ATOM     23 C15  LIG L   1      43.492  39.538  81.215  1.00  0.00     0.179 C 
ATOM     24 C16  LIG L   1      41.477  38.573  82.129  1.00  0.00     0.108 C 
ATOM     25  O4  LIG L   1      42.499  39.600  82.249  1.00  0.00    -0.368 OA
ATOM     26 C17  LIG L   1      40.573  38.843  80.913  1.00  0.00     0.041 C 
ATOM     27 C18  LIG L   1      40.602  38.668  83.409  1.00  0.00     0.196 C 
ATOM     28 C19  LIG L   1      39.914  40.220  81.012  1.00  0.00     0.031 C 
ATOM     29  O5  LIG L   1      39.429  39.490  83.266  1.00  0.00    -0.377 OA
ATOM     30 C20  LIG L   1      39.665  40.637  82.457  1.00  0.00     0.160 C 
ENDBRANCH   18   20
ENDBRANCH    3   13
TORSDOF 4
ENDMDL
MODEL 15
REMARK VINA RESULT:    -6.552      2.328     10.023
REMARK ITER + INTRA:           -8.659
REMARK INTER:                  -7.847
REMARK INTRA:                  -0.812
REMARK UNBOUND:                -0.575
REMARK Flexibility Score: inf
REMARK Active torsions [ 4 ] -> [ 4 ]
ROOT
ATOM      1  C1  LIG L   1      41.695  40.838  81.262  1.00  0.00     0.213 C 
ATOM      2  C2  LIG L   1      42.275  39.517  81.711  1.00  0.00     0.163 C 
ATOM      3  N1  LIG L   1      41.726  38.608  80.747  1.00  0.00    -0.234 N 
ATOM      4  C3  LIG L   1      40.588  39.179  80.194  1.00  0.00     0.408 C 
ATOM      5  O1  LIG L   1      39.771  38.683  79.434  1.00  0.00    -0.226 OA
ATOM      6  O2  LIG L   1      40.455  40.471  80.645  1.00  0.00    -0.444 O 
ENDROOT
BRANCH    1    7
ATOM      7  C4  LIG L   1      41.455  41.849  82.379  1.00  0.00     0.150 C 
BRANCH    7    8
ATOM      8  N2  LIG L   1      40.076  41.871  82.838  1.00  0.00    -0.312 N 
ATOM      9  C5  LIG L   1      38.193  41.290  84.230  1.00  0.00     0.109 C 
ATOM     10  C6  LIG L   1      39.662  41.157  83.939  1.00  0.00     0.210 C 
ATOM     11  O3  LIG L   1      40.419  40.472  84.618  1.00  0.00    -0.276 OA
ATOM     12  H1  LIG L   1      39.418  42.414  82.346  1.00  0.00     0.149 HD
ENDBRANCH    7    8
ENDBRANCH    1    7
BRANCH    3   13
ATOM     13  C7  LIG L   1      42.231  37.302  80.526  1.00  0.00     0.042 A 
ATOM     14  C8  LIG L   1      42.271  36.343  81.541  1.00  0.00     0.025 A 
ATOM     15  C9  LIG L   1      42.676  36.912  79.261  1.00  0.00     0.063 A 
ATOM     16 C10  LIG L   1      42.727  35.033  81.299  1.00  0.00     0.028 A 
ATOM     17 C11  LIG L   1      43.125  35.608  79.029  1.00  0.00     0.146 A 
ATOM     18 C12  LIG L   1      43.169  34.625  80.035  1.00  0.00     0.066 A 
ATOM     19  F1  LIG L   1      43.485  35.299  77.771  1.00  0.00    -0.203 F 
BRANCH   18   20
ATOM     20  N3  LIG L   1      43.577  33.314  79.756  1.00  0.00    -0.323 N 
ATOM     21 C13  LIG L   1      42.731  32.185  80.180  1.00  0.00     0.133 C 
ATOM     22 C14  LIG L   1      45.019  33.036  79.969  1.00  0.00     0.142 C 
ATOM     23 C15  LIG L   1      43.178  30.908  79.455  1.00  0.00     0.179 C 
ATOM     24 C16  LIG L   1      45.435  31.735  79.233  1.00  0.00     0.108 C 
ATOM     25  O4  LIG L   1      44.575  30.635  79.638  1.00  0.00    -0.368 OA
ATOM     26 C17  LIG L   1      45.422  31.902  77.703  1.00  0.00     0.041 C 
ATOM     27 C18  LIG L   1      46.878  31.349  79.662  1.00  0.00     0.196 C 
ATOM     28 C19  LIG L   1      45.865  30.615  77.005  1.00  0.00     0.031 C 
ATOM     29  O5  LIG L   1      47.650  30.704  78.633  1.00  0.00    -0.377 OA
ATOM     30 C20  LIG L   1      46.866  29.822  77.838  1.00  0.00     0.160 C 
ENDBRANCH   18   20
ENDBRANCH    3   13
TORSDOF 4
ENDMDL
MODEL 16
REMARK VINA RESULT:    -6.551      1.404      1.821
REMARK ITER + INTRA:           -8.658
REMARK INTER:                  -8.150
REMARK INTRA:                  -0.508
REMARK UNBOUND:                -0.575
REMARK Flexibility Score: inf
REMARK Active torsions [ 4 ] -> [ 4 ]
ROOT
ATOM      1  C1  LIG L   1      42.794  33.077  78.042  1.00  0.00     0.213 C 
ATOM      2  C2  LIG L   1      42.129  33.632  79.281  1.00  0.00     0.163 C 
ATOM      3  N1  LIG L   1      42.830  34.870  79.465  1.00  0.00    -0.234 N 
ATOM      4  C3  LIG L   1      44.053  34.791  78.813  1.00  0.00     0.408 C 
ATOM      5  O1  LIG L   1      44.985  35.579  78.830  1.00  0.00    -0.226 OA
ATOM      6  O2  LIG L   1      44.119  33.620  78.096  1.00  0.00    -0.444 O 
ENDROOT
BRANCH    1    7
ATOM      7  C4  LIG L   1      42.845  31.554  77.965  1.00  0.00     0.150 C 
BRANCH    7    8
ATOM      8  N2  LIG L   1      44.081  31.000  78.492  1.00  0.00    -0.312 N 
ATOM      9  C5  LIG L   1      45.473  29.688  79.962  1.00  0.00     0.109 C 
ATOM     10  C6  LIG L   1      44.093  30.120  79.550  1.00  0.00     0.210 C 
ATOM     11  O3  LIG L   1      43.075  29.727  80.108  1.00  0.00    -0.276 OA
ATOM     12  H1  LIG L   1      44.936  31.263  78.080  1.00  0.00     0.149 HD
ENDBRANCH    7    8
ENDBRANCH    1    7
BRANCH    3   13
ATOM     13  C7  LIG L   1      42.357  35.921  80.289  1.00  0.00     0.042 A 
ATOM     14  C8  LIG L   1      42.296  35.800  81.680  1.00  0.00     0.025 A 
ATOM     15  C9  LIG L   1      41.966  37.143  79.737  1.00  0.00     0.063 A 
ATOM     16 C10  LIG L   1      41.875  36.868  82.494  1.00  0.00     0.028 A 
ATOM     17 C11  LIG L   1      41.550  38.199  80.554  1.00  0.00     0.146 A 
ATOM     18 C12  LIG L   1      41.488  38.101  81.957  1.00  0.00     0.066 A 
ATOM     19  F1  LIG L   1      41.243  39.358  79.947  1.00  0.00    -0.203 F 
BRANCH   18   20
ATOM     20  N3  LIG L   1      41.114  39.195  82.748  1.00  0.00    -0.323 N 
ATOM     21 C13  LIG L   1      39.930  39.987  82.378  1.00  0.00     0.133 C 
ATOM     22 C14  LIG L   1      42.230  40.052  83.219  1.00  0.00     0.142 C 
ATOM     23 C15  LIG L   1      39.511  40.869  83.563  1.00  0.00     0.179 C 
ATOM     24 C16  LIG L   1      41.771  40.936  84.408  1.00  0.00     0.108 C 
ATOM     25  O4  LIG L   1      40.584  41.692  84.040  1.00  0.00    -0.368 OA
ATOM     26 C17  LIG L   1      41.518  40.112  85.683  1.00  0.00     0.041 C 
ATOM     27 C18  LIG L   1      42.879  41.979  84.722  1.00  0.00     0.196 C 
ATOM     28 C19  LIG L   1      41.095  41.012  86.846  1.00  0.00     0.031 C 
ATOM     29  O5  LIG L   1      42.984  42.332  86.114  1.00  0.00    -0.377 OA
ATOM     30 C20  LIG L   1      41.715  42.402  86.754  1.00  0.00     0.160 C 
ENDBRANCH   18   20
ENDBRANCH    3   13
TORSDOF 4
ENDMDL
MODEL 17
REMARK VINA RESULT:    -6.503      5.038     13.133
REMARK ITER + INTRA:           -8.599
REMARK INTER:                  -8.231
REMARK INTRA:                  -0.368
REMARK UNBOUND:                -0.575
REMARK Flexibility Score: inf
REMARK Active torsions [ 4 ] -> [ 4 ]
ROOT
ATOM      1  C1  LIG L   1      42.334  34.000  78.782  1.00  0.00     0.213 C 
ATOM      2  C2  LIG L   1      43.695  33.479  78.382  1.00  0.00     0.163 C 
ATOM      3  N1  LIG L   1      43.666  32.142  78.902  1.00  0.00    -0.234 N 
ATOM      4  C3  LIG L   1      42.716  32.078  79.912  1.00  0.00     0.408 C 
ATOM      5  O1  LIG L   1      42.472  31.161  80.681  1.00  0.00    -0.226 OA
ATOM      6  O2  LIG L   1      42.027  33.266  79.974  1.00  0.00    -0.444 O 
ENDROOT
BRANCH    1    7
ATOM      7  C4  LIG L   1      42.273  35.502  79.051  1.00  0.00     0.150 C 
BRANCH    7    8
ATOM      8  N2  LIG L   1      42.287  35.826  80.467  1.00  0.00    -0.312 N 
ATOM      9  C5  LIG L   1      41.999  37.198  82.430  1.00  0.00     0.109 C 
ATOM     10  C6  LIG L   1      41.880  37.053  80.939  1.00  0.00     0.210 C 
ATOM     11  O3  LIG L   1      41.463  37.947  80.211  1.00  0.00    -0.276 OA
ATOM     12  H1  LIG L   1      42.596  35.146  81.110  1.00  0.00     0.149 HD
ENDBRANCH    7    8
ENDBRANCH    1    7
BRANCH    3   13
ATOM     13  C7  LIG L   1      44.568  31.126  78.500  1.00  0.00     0.042 A 
ATOM     14  C8  LIG L   1      45.062  31.050  77.195  1.00  0.00     0.025 A 
ATOM     15  C9  LIG L   1      45.028  30.176  79.414  1.00  0.00     0.063 A 
ATOM     16 C10  LIG L   1      45.997  30.068  76.818  1.00  0.00     0.028 A 
ATOM     17 C11  LIG L   1      45.959  29.204  79.030  1.00  0.00     0.146 A 
ATOM     18 C12  LIG L   1      46.475  29.114  77.724  1.00  0.00     0.066 A 
ATOM     19  F1  LIG L   1      46.392  28.362  79.984  1.00  0.00    -0.203 F 
BRANCH   18   20
ATOM     20  N3  LIG L   1      47.444  28.160  77.387  1.00  0.00    -0.323 N 
ATOM     21 C13  LIG L   1      48.846  28.382  77.777  1.00  0.00     0.133 C 
ATOM     22 C14  LIG L   1      47.332  27.592  76.020  1.00  0.00     0.142 C 
ATOM     23 C15  LIG L   1      49.631  27.070  77.639  1.00  0.00     0.179 C 
ATOM     24 C16  LIG L   1      48.144  26.274  75.912  1.00  0.00     0.108 C 
ATOM     25  O4  LIG L   1      49.519  26.500  76.327  1.00  0.00    -0.368 OA
ATOM     26 C17  LIG L   1      47.510  25.131  76.725  1.00  0.00     0.041 C 
ATOM     27 C18  LIG L   1      48.199  25.833  74.423  1.00  0.00     0.196 C 
ATOM     28 C19  LIG L   1      48.314  23.838  76.576  1.00  0.00     0.031 C 
ATOM     29  O5  LIG L   1      48.221  24.407  74.228  1.00  0.00    -0.377 OA
ATOM     30 C20  LIG L   1      48.995  23.736  75.216  1.00  0.00     0.160 C 
ENDBRANCH   18   20
ENDBRANCH    3   13
TORSDOF 4
ENDMDL
MODEL 18
REMARK VINA RESULT:    -6.492      4.974      8.454
REMARK ITER + INTRA:           -8.585
REMARK INTER:                  -7.989
REMARK INTRA:                  -0.596
REMARK UNBOUND:                -0.575
REMARK Flexibility Score: inf
REMARK Active torsions [ 4 ] -> [ 4 ]
ROOT
ATOM      1  C1  LIG L   1      49.065  27.472  75.759  1.00  0.00     0.213 C 
ATOM      2  C2  LIG L   1      47.748  28.209  75.669  1.00  0.00     0.163 C 
ATOM      3  N1  LIG L   1      47.571  28.667  77.017  1.00  0.00    -0.234 N 
ATOM      4  C3  LIG L   1      48.331  27.870  77.862  1.00  0.00     0.408 C 
ATOM      5  O1  LIG L   1      48.360  27.854  79.082  1.00  0.00    -0.226 OA
ATOM      6  O2  LIG L   1      49.103  27.012  77.116  1.00  0.00    -0.444 O 
ENDROOT
BRANCH    1    7
ATOM      7  C4  LIG L   1      49.215  26.299  74.794  1.00  0.00     0.150 C 
BRANCH    7    8
ATOM      8  N2  LIG L   1      48.158  25.313  74.932  1.00  0.00    -0.312 N 
ATOM      9  C5  LIG L   1      46.218  24.036  74.278  1.00  0.00     0.109 C 
ATOM     10  C6  LIG L   1      47.249  25.072  73.927  1.00  0.00     0.210 C 
ATOM     11  O3  LIG L   1      47.275  25.651  72.846  1.00  0.00    -0.276 OA
ATOM     12  H1  LIG L   1      48.089  24.800  75.770  1.00  0.00     0.149 HD
ENDBRANCH    7    8
ENDBRANCH    1    7
BRANCH    3   13
ATOM     13  C7  LIG L   1      46.661  29.690  77.382  1.00  0.00     0.042 A 
ATOM     14  C8  LIG L   1      46.663  30.940  76.756  1.00  0.00     0.025 A 
ATOM     15  C9  LIG L   1      45.694  29.469  78.365  1.00  0.00     0.063 A 
ATOM     16 C10  LIG L   1      45.721  31.932  77.090  1.00  0.00     0.028 A 
ATOM     17 C11  LIG L   1      44.761  30.461  78.689  1.00  0.00     0.146 A 
ATOM     18 C12  LIG L   1      44.741  31.723  78.067  1.00  0.00     0.066 A 
ATOM     19  F1  LIG L   1      43.831  30.149  79.607  1.00  0.00    -0.203 F 
BRANCH   18   20
ATOM     20  N3  LIG L   1      43.762  32.674  78.380  1.00  0.00    -0.323 N 
ATOM     21 C13  LIG L   1      42.386  32.487  77.889  1.00  0.00     0.133 C 
ATOM     22 C14  LIG L   1      44.196  34.091  78.288  1.00  0.00     0.142 C 
ATOM     23 C15  LIG L   1      41.438  33.425  78.650  1.00  0.00     0.179 C 
ATOM     24 C16  LIG L   1      43.211  35.011  79.057  1.00  0.00     0.108 C 
ATOM     25  O4  LIG L   1      41.853  34.796  78.583  1.00  0.00    -0.368 OA
ATOM     26 C17  LIG L   1      43.295  34.809  80.581  1.00  0.00     0.041 C 
ATOM     27 C18  LIG L   1      43.557  36.494  78.749  1.00  0.00     0.196 C 
ATOM     28 C19  LIG L   1      42.336  35.748  81.314  1.00  0.00     0.031 C 
ATOM     29  O5  LIG L   1      43.307  37.400  79.839  1.00  0.00    -0.377 OA
ATOM     30 C20  LIG L   1      42.132  37.062  80.568  1.00  0.00     0.160 C 
ENDBRANCH   18   20
ENDBRANCH    3   13
TORSDOF 4
ENDMDL
MODEL 19
REMARK VINA RESULT:    -6.480      2.148      2.856
REMARK ITER + INTRA:           -8.570
REMARK INTER:                  -8.008
REMARK INTRA:                  -0.562
REMARK UNBOUND:                -0.575
REMARK Flexibility Score: inf
REMARK Active torsions [ 4 ] -> [ 4 ]
ROOT
ATOM      1  C1  LIG L   1      44.763  31.001  78.985  1.00  0.00     0.213 C 
ATOM      2  C2  LIG L   1      44.921  32.386  79.569  1.00  0.00     0.163 C 
ATOM      3  N1  LIG L   1      43.844  33.097  78.943  1.00  0.00    -0.234 N 
ATOM      4  C3  LIG L   1      43.483  32.427  77.782  1.00  0.00     0.408 C 
ATOM      5  O1  LIG L   1      42.700  32.768  76.910  1.00  0.00    -0.226 OA
ATOM      6  O2  LIG L   1      44.173  31.241  77.701  1.00  0.00    -0.444 O 
ENDROOT
BRANCH    1    7
ATOM      7  C4  LIG L   1      46.062  30.213  78.835  1.00  0.00     0.150 C 
BRANCH    7    8
ATOM      8  N2  LIG L   1      46.081  28.995  79.626  1.00  0.00    -0.312 N 
ATOM      9  C5  LIG L   1      46.399  27.632  81.591  1.00  0.00     0.109 C 
ATOM     10  C6  LIG L   1      46.410  28.998  80.962  1.00  0.00     0.210 C 
ATOM     11  O3  LIG L   1      46.689  30.017  81.582  1.00  0.00    -0.276 OA
ATOM     12  H1  LIG L   1      45.852  28.140  79.192  1.00  0.00     0.149 HD
ENDBRANCH    7    8
ENDBRANCH    1    7
BRANCH    3   13
ATOM     13  C7  LIG L   1      43.353  34.342  79.409  1.00  0.00     0.042 A 
ATOM     14  C8  LIG L   1      43.314  35.475  78.592  1.00  0.00     0.025 A 
ATOM     15  C9  LIG L   1      42.850  34.472  80.706  1.00  0.00     0.063 A 
ATOM     16 C10  LIG L   1      42.776  36.693  79.048  1.00  0.00     0.028 A 
ATOM     17 C11  LIG L   1      42.316  35.686  81.149  1.00  0.00     0.146 A 
ATOM     18 C12  LIG L   1      42.261  36.837  80.342  1.00  0.00     0.066 A 
ATOM     19  F1  LIG L   1      41.803  35.711  82.392  1.00  0.00    -0.203 F 
BRANCH   18   20
ATOM     20  N3  LIG L   1      41.674  38.023  80.801  1.00  0.00    -0.323 N 
ATOM     21 C13  LIG L   1      41.073  38.957  79.834  1.00  0.00     0.133 C 
ATOM     22 C14  LIG L   1      42.422  38.734  81.867  1.00  0.00     0.142 C 
ATOM     23 C15  LIG L   1      40.186  39.966  80.578  1.00  0.00     0.179 C 
ATOM     24 C16  LIG L   1      41.500  39.752  82.591  1.00  0.00     0.108 C 
ATOM     25  O4  LIG L   1      40.891  40.650  81.622  1.00  0.00    -0.368 OA
ATOM     26 C17  LIG L   1      40.423  39.058  83.443  1.00  0.00     0.041 C 
ATOM     27 C18  LIG L   1      42.363  40.637  83.532  1.00  0.00     0.196 C 
ATOM     28 C19  LIG L   1      39.549  40.084  84.167  1.00  0.00     0.031 C 
ATOM     29  O5  LIG L   1      41.689  41.059  84.732  1.00  0.00    -0.377 OA
ATOM     30 C20  LIG L   1      40.316  41.358  84.507  1.00  0.00     0.160 C 
ENDBRANCH   18   20
ENDBRANCH    3   13
TORSDOF 4
ENDMDL
MODEL 20
REMARK VINA RESULT:    -6.471      5.039     13.059
REMARK ITER + INTRA:           -8.559
REMARK INTER:                  -8.059
REMARK INTRA:                  -0.500
REMARK UNBOUND:                -0.575
REMARK Flexibility Score: inf
REMARK Active torsions [ 4 ] -> [ 4 ]
ROOT
ATOM      1  C1  LIG L   1      42.479  33.920  78.640  1.00  0.00     0.213 C 
ATOM      2  C2  LIG L   1      43.879  33.398  78.408  1.00  0.00     0.163 C 
ATOM      3  N1  LIG L   1      43.801  32.080  78.968  1.00  0.00    -0.234 N 
ATOM      4  C3  LIG L   1      42.747  32.041  79.871  1.00  0.00     0.408 C 
ATOM      5  O1  LIG L   1      42.428  31.148  80.640  1.00  0.00    -0.226 OA
ATOM      6  O2  LIG L   1      42.049  33.223  79.817  1.00  0.00    -0.444 O 
ENDROOT
BRANCH    1    7
ATOM      7  C4  LIG L   1      42.380  35.429  78.848  1.00  0.00     0.150 C 
BRANCH    7    8
ATOM      8  N2  LIG L   1      42.141  35.796  80.233  1.00  0.00    -0.312 N 
ATOM      9  C5  LIG L   1      41.731  37.273  82.096  1.00  0.00     0.109 C 
ATOM     10  C6  LIG L   1      41.929  37.100  80.616  1.00  0.00     0.210 C 
ATOM     11  O3  LIG L   1      41.907  38.037  79.825  1.00  0.00    -0.276 OA
ATOM     12  H1  LIG L   1      42.131  35.089  80.920  1.00  0.00     0.149 HD
ENDBRANCH    7    8
ENDBRANCH    1    7
BRANCH    3   13
ATOM     13  C7  LIG L   1      44.748  31.059  78.701  1.00  0.00     0.042 A 
ATOM     14  C8  LIG L   1      45.362  30.334  79.725  1.00  0.00     0.025 A 
ATOM     15  C9  LIG L   1      45.075  30.714  77.388  1.00  0.00     0.063 A 
ATOM     16 C10  LIG L   1      46.262  29.287  79.449  1.00  0.00     0.028 A 
ATOM     17 C11  LIG L   1      45.969  29.671  77.123  1.00  0.00     0.146 A 
ATOM     18 C12  LIG L   1      46.594  28.923  78.139  1.00  0.00     0.066 A 
ATOM     19  F1  LIG L   1      46.188  29.366  75.832  1.00  0.00    -0.203 F 
BRANCH   18   20
ATOM     20  N3  LIG L   1      47.446  27.853  77.837  1.00  0.00    -0.323 N 
ATOM     21 C13  LIG L   1      47.577  26.740  78.792  1.00  0.00     0.133 C 
ATOM     22 C14  LIG L   1      48.750  28.225  77.236  1.00  0.00     0.142 C 
ATOM     23 C15  LIG L   1      48.247  25.545  78.099  1.00  0.00     0.179 C 
ATOM     24 C16  LIG L   1      49.404  26.995  76.554  1.00  0.00     0.108 C 
ATOM     25  O4  LIG L   1      49.503  25.893  77.499  1.00  0.00    -0.368 OA
ATOM     26 C17  LIG L   1      48.646  26.560  75.287  1.00  0.00     0.041 C 
ATOM     27 C18  LIG L   1      50.859  27.356  76.144  1.00  0.00     0.196 C 
ATOM     28 C19  LIG L   1      49.330  25.365  74.620  1.00  0.00     0.031 C 
ATOM     29  O5  LIG L   1      51.316  26.705  74.944  1.00  0.00    -0.377 OA
ATOM     30 C20  LIG L   1      50.839  25.368  74.836  1.00  0.00     0.160 C 
ENDBRANCH   18   20
ENDBRANCH    3   13
TORSDOF 4
ENDMDL
