MODEL 1
REMARK VINA RESULT:    -6.726      0.000      0.000
REMARK ITER + INTRA:           -9.272
REMARK INTER:                  -8.575
REMARK INTRA:                  -0.696
REMARK UNBOUND:                -0.973
REMARK Flexibility Score: inf
REMARK Active torsions [ 4 ] -> [ 4 ]
ROOT
ATOM      1  C1  LIG L   1      41.917  33.596  79.127  1.00  0.00     0.213 C 
ATOM      2  C2  LIG L   1      43.104  34.472  78.784  1.00  0.00     0.163 C 
ATOM      3  N1  LIG L   1      43.193  34.409  77.353  1.00  0.00    -0.234 N 
ATOM      4  C3  LIG L   1      42.108  33.703  76.849  1.00  0.00     0.408 C 
ATOM      5  O1  LIG L   1      41.843  33.458  75.684  1.00  0.00    -0.226 OA
ATOM      6  O2  LIG L   1      41.291  33.295  77.872  1.00  0.00    -0.444 O 
ENDROOT
BRANCH    1    7
ATOM      7  C4  LIG L   1      42.292  32.304  79.884  1.00  0.00     0.150 C 
BRANCH    7    8
ATOM      8  N2  LIG L   1      43.518  31.670  79.414  1.00  0.00    -0.312 N 
ATOM      9  C5  LIG L   1      45.146  29.877  79.202  1.00  0.00     0.109 C 
ATOM     10  C6  LIG L   1      43.885  30.412  79.837  1.00  0.00     0.210 C 
ATOM     11  O3  LIG L   1      43.248  29.761  80.661  1.00  0.00    -0.276 OA
ATOM     12  H1  LIG L   1      44.097  32.153  78.780  1.00  0.00     0.149 HD
ENDBRANCH    7    8
ENDBRANCH    1    7
BRANCH    3   13
ATOM     13  C7  LIG L   1      44.189  35.102  76.610  1.00  0.00     0.042 A 
ATOM     14  C8  LIG L   1      45.214  34.437  75.928  1.00  0.00     0.025 A 
ATOM     15  C9  LIG L   1      44.161  36.496  76.514  1.00  0.00     0.063 A 
ATOM     16 C10  LIG L   1      46.164  35.135  75.157  1.00  0.00     0.028 A 
ATOM     17 C11  LIG L   1      45.111  37.182  75.747  1.00  0.00     0.146 A 
ATOM     18 C12  LIG L   1      46.135  36.526  75.044  1.00  0.00     0.066 A 
ATOM     19  F1  LIG L   1      45.021  38.522  75.704  1.00  0.00    -0.203 F 
BRANCH   18   20
ATOM     20  N3  LIG L   1      47.051  37.251  74.266  1.00  0.00    -0.323 N 
ATOM     21 C13  LIG L   1      48.392  37.577  74.792  1.00  0.00     0.133 C 
ATOM     22 C14  LIG L   1      47.027  36.855  72.835  1.00  0.00     0.142 C 
ATOM     23 C15  LIG L   1      49.480  36.884  73.967  1.00  0.00     0.179 C 
ATOM     24 C16  LIG L   1      48.163  37.530  72.038  1.00  0.00     0.110 C 
ATOM     25  O4  LIG L   1      49.481  37.277  72.587  1.00  0.00    -0.368 OA
ATOM     26 C17  LIG L   1      48.198  37.067  70.588  1.00  0.00     0.067 C 
ATOM     27 C18  LIG L   1      47.953  39.040  71.856  1.00  0.00     0.196 C 
ATOM     28 C19  LIG L   1      48.930  38.207  69.912  1.00  0.00     0.163 C 
ATOM     29  O5  LIG L   1      48.503  39.402  70.573  1.00  0.00    -0.377 OA
ENDBRANCH   18   20
ENDBRANCH    3   13
TORSDOF 4
ENDMDL
MODEL 2
REMARK VINA RESULT:    -6.566      5.865      8.839
REMARK ITER + INTRA:           -9.075
REMARK INTER:                  -8.550
REMARK INTRA:                  -0.524
REMARK UNBOUND:                -0.973
REMARK Flexibility Score: inf
REMARK Active torsions [ 4 ] -> [ 4 ]
ROOT
ATOM      1  C1  LIG L   1      41.875  40.531  82.181  1.00  0.00     0.213 C 
ATOM      2  C2  LIG L   1      42.655  39.246  81.993  1.00  0.00     0.163 C 
ATOM      3  N1  LIG L   1      41.782  38.410  81.219  1.00  0.00    -0.234 N 
ATOM      4  C3  LIG L   1      40.657  39.133  80.840  1.00  0.00     0.408 C 
ATOM      5  O1  LIG L   1      39.710  38.757  80.170  1.00  0.00    -0.226 OA
ATOM      6  O2  LIG L   1      40.736  40.416  81.317  1.00  0.00    -0.444 O 
ENDROOT
BRANCH    1    7
ATOM      7  C4  LIG L   1      41.442  40.792  83.640  1.00  0.00     0.150 C 
BRANCH    7    8
ATOM      8  N2  LIG L   1      40.128  41.412  83.771  1.00  0.00    -0.312 N 
ATOM      9  C5  LIG L   1      37.729  41.459  84.153  1.00  0.00     0.109 C 
ATOM     10  C6  LIG L   1      38.994  40.657  83.972  1.00  0.00     0.210 C 
ATOM     11  O3  LIG L   1      38.995  39.429  84.007  1.00  0.00    -0.276 OA
ATOM     12  H1  LIG L   1      40.051  42.392  83.714  1.00  0.00     0.149 HD
ENDBRANCH    7    8
ENDBRANCH    1    7
BRANCH    3   13
ATOM     13  C7  LIG L   1      42.134  37.091  80.814  1.00  0.00     0.042 A 
ATOM     14  C8  LIG L   1      42.324  36.053  81.732  1.00  0.00     0.025 A 
ATOM     15  C9  LIG L   1      42.279  36.780  79.460  1.00  0.00     0.063 A 
ATOM     16 C10  LIG L   1      42.626  34.742  81.313  1.00  0.00     0.028 A 
ATOM     17 C11  LIG L   1      42.580  35.474  79.053  1.00  0.00     0.146 A 
ATOM     18 C12  LIG L   1      42.758  34.418  79.961  1.00  0.00     0.066 A 
ATOM     19  F1  LIG L   1      42.704  35.251  77.733  1.00  0.00    -0.203 F 
BRANCH   18   20
ATOM     20  N3  LIG L   1      43.033  33.118  79.507  1.00  0.00    -0.323 N 
ATOM     21 C13  LIG L   1      41.967  32.289  78.910  1.00  0.00     0.133 C 
ATOM     22 C14  LIG L   1      44.351  33.015  78.830  1.00  0.00     0.142 C 
ATOM     23 C15  LIG L   1      42.272  31.994  77.439  1.00  0.00     0.179 C 
ATOM     24 C16  LIG L   1      44.550  31.629  78.181  1.00  0.00     0.110 C 
ATOM     25  O4  LIG L   1      43.498  31.274  77.248  1.00  0.00    -0.368 OA
ATOM     26 C17  LIG L   1      45.861  31.540  77.414  1.00  0.00     0.067 C 
ATOM     27 C18  LIG L   1      44.739  30.506  79.210  1.00  0.00     0.196 C 
ATOM     28 C19  LIG L   1      46.106  30.047  77.381  1.00  0.00     0.163 C 
ATOM     29  O5  LIG L   1      45.642  29.539  78.636  1.00  0.00    -0.377 OA
ENDBRANCH   18   20
ENDBRANCH    3   13
TORSDOF 4
ENDMDL
MODEL 3
REMARK VINA RESULT:    -6.539      0.950      1.307
REMARK ITER + INTRA:           -9.042
REMARK INTER:                  -8.437
REMARK INTRA:                  -0.604
REMARK UNBOUND:                -0.973
REMARK Flexibility Score: inf
REMARK Active torsions [ 4 ] -> [ 4 ]
ROOT
ATOM      1  C1  LIG L   1      41.954  33.596  79.141  1.00  0.00     0.213 C 
ATOM      2  C2  LIG L   1      43.135  34.458  78.747  1.00  0.00     0.163 C 
ATOM      3  N1  LIG L   1      43.155  34.402  77.313  1.00  0.00    -0.234 N 
ATOM      4  C3  LIG L   1      42.036  33.716  76.857  1.00  0.00     0.408 C 
ATOM      5  O1  LIG L   1      41.713  33.481  75.705  1.00  0.00    -0.226 OA
ATOM      6  O2  LIG L   1      41.263  33.312  77.916  1.00  0.00    -0.444 O 
ENDROOT
BRANCH    1    7
ATOM      7  C4  LIG L   1      42.345  32.294  79.872  1.00  0.00     0.150 C 
BRANCH    7    8
ATOM      8  N2  LIG L   1      43.586  31.692  79.396  1.00  0.00    -0.312 N 
ATOM      9  C5  LIG L   1      45.190  29.898  79.056  1.00  0.00     0.109 C 
ATOM     10  C6  LIG L   1      43.904  30.382  79.681  1.00  0.00     0.210 C 
ATOM     11  O3  LIG L   1      43.208  29.652  80.381  1.00  0.00    -0.276 OA
ATOM     12  H1  LIG L   1      44.209  32.234  78.860  1.00  0.00     0.149 HD
ENDBRANCH    7    8
ENDBRANCH    1    7
BRANCH    3   13
ATOM     13  C7  LIG L   1      44.124  35.086  76.527  1.00  0.00     0.042 A 
ATOM     14  C8  LIG L   1      44.202  36.482  76.482  1.00  0.00     0.025 A 
ATOM     15  C9  LIG L   1      45.065  34.371  75.780  1.00  0.00     0.063 A 
ATOM     16 C10  LIG L   1      45.197  37.144  75.737  1.00  0.00     0.028 A 
ATOM     17 C11  LIG L   1      46.050  35.038  75.041  1.00  0.00     0.146 A 
ATOM     18 C12  LIG L   1      46.150  36.438  75.000  1.00  0.00     0.066 A 
ATOM     19  F1  LIG L   1      46.919  34.283  74.347  1.00  0.00    -0.203 F 
BRANCH   18   20
ATOM     20  N3  LIG L   1      47.170  37.064  74.266  1.00  0.00    -0.323 N 
ATOM     21 C13  LIG L   1      48.569  37.016  74.733  1.00  0.00     0.133 C 
ATOM     22 C14  LIG L   1      47.001  36.906  72.799  1.00  0.00     0.142 C 
ATOM     23 C15  LIG L   1      49.444  36.243  73.742  1.00  0.00     0.179 C 
ATOM     24 C16  LIG L   1      48.223  37.440  72.024  1.00  0.00     0.110 C 
ATOM     25  O4  LIG L   1      49.475  36.833  72.434  1.00  0.00    -0.368 OA
ATOM     26 C17  LIG L   1      48.097  37.208  70.525  1.00  0.00     0.067 C 
ATOM     27 C18  LIG L   1      48.343  38.970  72.071  1.00  0.00     0.196 C 
ATOM     28 C19  LIG L   1      49.032  38.257  69.964  1.00  0.00     0.163 C 
ATOM     29  O5  LIG L   1      48.906  39.400  70.815  1.00  0.00    -0.377 OA
ENDBRANCH   18   20
ENDBRANCH    3   13
TORSDOF 4
ENDMDL
MODEL 4
REMARK VINA RESULT:    -6.507      6.318      8.850
REMARK ITER + INTRA:           -9.002
REMARK INTER:                  -8.204
REMARK INTRA:                  -0.798
REMARK UNBOUND:                -0.973
REMARK Flexibility Score: inf
REMARK Active torsions [ 4 ] -> [ 4 ]
ROOT
ATOM      1  C1  LIG L   1      41.714  41.164  85.040  1.00  0.00     0.213 C 
ATOM      2  C2  LIG L   1      42.482  40.489  83.923  1.00  0.00     0.163 C 
ATOM      3  N1  LIG L   1      41.564  39.522  83.393  1.00  0.00    -0.234 N 
ATOM      4  C3  LIG L   1      40.323  39.675  84.000  1.00  0.00     0.408 C 
ATOM      5  O1  LIG L   1      39.301  39.041  83.796  1.00  0.00    -0.226 OA
ATOM      6  O2  LIG L   1      40.363  40.702  84.908  1.00  0.00    -0.444 O 
ENDROOT
BRANCH    1    7
ATOM      7  C4  LIG L   1      42.268  40.866  86.450  1.00  0.00     0.150 C 
BRANCH    7    8
ATOM      8  N2  LIG L   1      43.423  39.976  86.461  1.00  0.00    -0.312 N 
ATOM      9  C5  LIG L   1      44.625  37.911  86.908  1.00  0.00     0.109 C 
ATOM     10  C6  LIG L   1      43.363  38.729  87.043  1.00  0.00     0.210 C 
ATOM     11  O3  LIG L   1      42.371  38.300  87.627  1.00  0.00    -0.276 OA
ATOM     12  H1  LIG L   1      44.264  40.273  86.044  1.00  0.00     0.149 HD
ENDBRANCH    7    8
ENDBRANCH    1    7
BRANCH    3   13
ATOM     13  C7  LIG L   1      41.892  38.658  82.311  1.00  0.00     0.042 A 
ATOM     14  C8  LIG L   1      42.046  37.277  82.475  1.00  0.00     0.025 A 
ATOM     15  C9  LIG L   1      42.049  39.167  81.018  1.00  0.00     0.063 A 
ATOM     16 C10  LIG L   1      42.323  36.428  81.386  1.00  0.00     0.028 A 
ATOM     17 C11  LIG L   1      42.326  38.316  79.942  1.00  0.00     0.146 A 
ATOM     18 C12  LIG L   1      42.468  36.926  80.089  1.00  0.00     0.066 A 
ATOM     19  F1  LIG L   1      42.465  38.878  78.729  1.00  0.00    -0.203 F 
BRANCH   18   20
ATOM     20  N3  LIG L   1      42.720  36.107  78.978  1.00  0.00    -0.323 N 
ATOM     21 C13  LIG L   1      44.059  36.075  78.356  1.00  0.00     0.133 C 
ATOM     22 C14  LIG L   1      42.051  34.784  79.076  1.00  0.00     0.142 C 
ATOM     23 C15  LIG L   1      44.689  34.686  78.500  1.00  0.00     0.179 C 
ATOM     24 C16  LIG L   1      42.489  33.839  77.938  1.00  0.00     0.110 C 
ATOM     25  O4  LIG L   1      43.925  33.650  77.867  1.00  0.00    -0.368 OA
ATOM     26 C17  LIG L   1      41.873  32.454  78.076  1.00  0.00     0.067 C 
ATOM     27 C18  LIG L   1      41.949  34.261  76.564  1.00  0.00     0.196 C 
ATOM     28 C19  LIG L   1      41.946  31.934  76.656  1.00  0.00     0.163 C 
ATOM     29  O5  LIG L   1      41.703  33.059  75.806  1.00  0.00    -0.377 OA
ENDBRANCH   18   20
ENDBRANCH    3   13
TORSDOF 4
ENDMDL
MODEL 5
REMARK VINA RESULT:    -6.478      6.075      9.540
REMARK ITER + INTRA:           -8.966
REMARK INTER:                  -8.396
REMARK INTRA:                  -0.570
REMARK UNBOUND:                -0.973
REMARK Flexibility Score: inf
REMARK Active torsions [ 4 ] -> [ 4 ]
ROOT
ATOM      1  C1  LIG L   1      42.810  33.157  78.073  1.00  0.00     0.213 C 
ATOM      2  C2  LIG L   1      41.967  34.162  78.829  1.00  0.00     0.163 C 
ATOM      3  N1  LIG L   1      42.921  34.980  79.521  1.00  0.00    -0.234 N 
ATOM      4  C3  LIG L   1      44.208  34.629  79.130  1.00  0.00     0.408 C 
ATOM      5  O1  LIG L   1      45.266  35.112  79.497  1.00  0.00    -0.226 OA
ATOM      6  O2  LIG L   1      44.162  33.619  78.204  1.00  0.00    -0.444 O 
ENDROOT
BRANCH    1    7
ATOM      7  C4  LIG L   1      42.667  31.708  78.585  1.00  0.00     0.150 C 
BRANCH    7    8
ATOM      8  N2  LIG L   1      43.935  31.052  78.884  1.00  0.00    -0.312 N 
ATOM      9  C5  LIG L   1      45.392  29.432  79.961  1.00  0.00     0.109 C 
ATOM     10  C6  LIG L   1      44.021  30.048  79.824  1.00  0.00     0.210 C 
ATOM     11  O3  LIG L   1      43.068  29.671  80.501  1.00  0.00    -0.276 OA
ATOM     12  H1  LIG L   1      44.747  31.333  78.403  1.00  0.00     0.149 HD
ENDBRANCH    7    8
ENDBRANCH    1    7
BRANCH    3   13
ATOM     13  C7  LIG L   1      42.543  36.064  80.362  1.00  0.00     0.042 A 
ATOM     14  C8  LIG L   1      42.746  36.044  81.746  1.00  0.00     0.025 A 
ATOM     15  C9  LIG L   1      41.970  37.217  79.819  1.00  0.00     0.063 A 
ATOM     16 C10  LIG L   1      42.410  37.145  82.559  1.00  0.00     0.028 A 
ATOM     17 C11  LIG L   1      41.638  38.306  80.635  1.00  0.00     0.146 A 
ATOM     18 C12  LIG L   1      41.850  38.306  82.023  1.00  0.00     0.066 A 
ATOM     19  F1  LIG L   1      41.089  39.379  80.041  1.00  0.00    -0.203 F 
BRANCH   18   20
ATOM     20  N3  LIG L   1      41.526  39.430  82.800  1.00  0.00    -0.323 N 
ATOM     21 C13  LIG L   1      42.224  40.714  82.591  1.00  0.00     0.133 C 
ATOM     22 C14  LIG L   1      40.067  39.552  83.051  1.00  0.00     0.142 C 
ATOM     23 C15  LIG L   1      41.249  41.786  82.095  1.00  0.00     0.179 C 
ATOM     24 C16  LIG L   1      39.719  40.885  83.745  1.00  0.00     0.110 C 
ATOM     25  O4  LIG L   1      40.183  42.051  83.018  1.00  0.00    -0.368 OA
ATOM     26 C17  LIG L   1      38.218  41.057  83.932  1.00  0.00     0.067 C 
ATOM     27 C18  LIG L   1      40.202  40.950  85.200  1.00  0.00     0.196 C 
ATOM     28 C19  LIG L   1      38.155  42.053  85.070  1.00  0.00     0.163 C 
ATOM     29  O5  LIG L   1      39.244  41.732  85.941  1.00  0.00    -0.377 OA
ENDBRANCH   18   20
ENDBRANCH    3   13
TORSDOF 4
ENDMDL
MODEL 6
REMARK VINA RESULT:    -6.426      5.826      9.083
REMARK ITER + INTRA:           -8.902
REMARK INTER:                  -8.238
REMARK INTRA:                  -0.664
REMARK UNBOUND:                -0.973
REMARK Flexibility Score: inf
REMARK Active torsions [ 4 ] -> [ 4 ]
ROOT
ATOM      1  C1  LIG L   1      42.838  31.703  78.720  1.00  0.00     0.213 C 
ATOM      2  C2  LIG L   1      42.164  32.806  79.509  1.00  0.00     0.163 C 
ATOM      3  N1  LIG L   1      43.080  33.909  79.434  1.00  0.00    -0.234 N 
ATOM      4  C3  LIG L   1      44.127  33.589  78.579  1.00  0.00     0.408 C 
ATOM      5  O1  LIG L   1      45.082  34.279  78.264  1.00  0.00    -0.226 OA
ATOM      6  O2  LIG L   1      43.955  32.326  78.071  1.00  0.00    -0.444 O 
ENDROOT
BRANCH    1    7
ATOM      7  C4  LIG L   1      43.292  30.505  79.581  1.00  0.00     0.150 C 
BRANCH    7    8
ATOM      8  N2  LIG L   1      44.670  30.090  79.346  1.00  0.00    -0.312 N 
ATOM      9  C5  LIG L   1      46.736  28.899  79.815  1.00  0.00     0.109 C 
ATOM     10  C6  LIG L   1      45.343  29.291  80.244  1.00  0.00     0.210 C 
ATOM     11  O3  LIG L   1      44.862  28.916  81.310  1.00  0.00    -0.276 OA
ATOM     12  H1  LIG L   1      45.129  30.387  78.527  1.00  0.00     0.149 HD
ENDBRANCH    7    8
ENDBRANCH    1    7
BRANCH    3   13
ATOM     13  C7  LIG L   1      42.828  35.165  80.053  1.00  0.00     0.042 A 
ATOM     14  C8  LIG L   1      42.338  36.266  79.342  1.00  0.00     0.025 A 
ATOM     15  C9  LIG L   1      43.040  35.337  81.424  1.00  0.00     0.063 A 
ATOM     16 C10  LIG L   1      42.048  37.489  79.978  1.00  0.00     0.028 A 
ATOM     17 C11  LIG L   1      42.751  36.556  82.048  1.00  0.00     0.146 A 
ATOM     18 C12  LIG L   1      42.244  37.664  81.349  1.00  0.00     0.066 A 
ATOM     19  F1  LIG L   1      42.983  36.646  83.369  1.00  0.00    -0.203 F 
BRANCH   18   20
ATOM     20  N3  LIG L   1      41.943  38.860  82.020  1.00  0.00    -0.323 N 
ATOM     21 C13  LIG L   1      42.207  40.166  81.383  1.00  0.00     0.133 C 
ATOM     22 C14  LIG L   1      40.668  38.788  82.777  1.00  0.00     0.142 C 
ATOM     23 C15  LIG L   1      40.899  40.923  81.139  1.00  0.00     0.179 C 
ATOM     24 C16  LIG L   1      40.268  40.162  83.352  1.00  0.00     0.110 C 
ATOM     25  O4  LIG L   1      40.172  41.201  82.345  1.00  0.00    -0.368 OA
ATOM     26 C17  LIG L   1      38.921  40.116  84.060  1.00  0.00     0.067 C 
ATOM     27 C18  LIG L   1      41.181  40.624  84.496  1.00  0.00     0.196 C 
ATOM     28 C19  LIG L   1      39.010  41.312  84.983  1.00  0.00     0.163 C 
ATOM     29  O5  LIG L   1      40.371  41.378  85.421  1.00  0.00    -0.377 OA
ENDBRANCH   18   20
ENDBRANCH    3   13
TORSDOF 4
ENDMDL
MODEL 7
REMARK VINA RESULT:    -6.341      1.628      8.922
REMARK ITER + INTRA:           -8.797
REMARK INTER:                  -7.827
REMARK INTRA:                  -0.969
REMARK UNBOUND:                -0.973
REMARK Flexibility Score: inf
REMARK Active torsions [ 4 ] -> [ 4 ]
ROOT
ATOM      1  C1  LIG L   1      47.816  38.833  72.913  1.00  0.00     0.213 C 
ATOM      2  C2  LIG L   1      46.580  38.061  73.327  1.00  0.00     0.163 C 
ATOM      3  N1  LIG L   1      46.998  37.305  74.473  1.00  0.00    -0.234 N 
ATOM      4  C3  LIG L   1      48.291  37.670  74.827  1.00  0.00     0.408 C 
ATOM      5  O1  LIG L   1      48.967  37.250  75.750  1.00  0.00    -0.226 OA
ATOM      6  O2  LIG L   1      48.759  38.640  73.977  1.00  0.00    -0.444 O 
ENDROOT
BRANCH    1    7
ATOM      7  C4  LIG L   1      48.407  38.387  71.559  1.00  0.00     0.150 C 
BRANCH    7    8
ATOM      8  N2  LIG L   1      47.878  37.122  71.063  1.00  0.00    -0.312 N 
ATOM      9  C5  LIG L   1      47.782  34.706  70.812  1.00  0.00     0.109 C 
ATOM     10  C6  LIG L   1      48.498  35.925  71.344  1.00  0.00     0.210 C 
ATOM     11  O3  LIG L   1      49.547  35.836  71.976  1.00  0.00    -0.276 OA
ATOM     12  H1  LIG L   1      47.059  37.124  70.516  1.00  0.00     0.149 HD
ENDBRANCH    7    8
ENDBRANCH    1    7
BRANCH    3   13
ATOM     13  C7  LIG L   1      46.126  36.431  75.181  1.00  0.00     0.042 A 
ATOM     14  C8  LIG L   1      46.123  35.048  74.974  1.00  0.00     0.025 A 
ATOM     15  C9  LIG L   1      45.246  36.934  76.144  1.00  0.00     0.063 A 
ATOM     16 C10  LIG L   1      45.288  34.191  75.718  1.00  0.00     0.028 A 
ATOM     17 C11  LIG L   1      44.419  36.074  76.877  1.00  0.00     0.146 A 
ATOM     18 C12  LIG L   1      44.416  34.682  76.691  1.00  0.00     0.066 A 
ATOM     19  F1  LIG L   1      43.598  36.631  77.784  1.00  0.00    -0.203 F 
BRANCH   18   20
ATOM     20  N3  LIG L   1      43.588  33.855  77.467  1.00  0.00    -0.323 N 
ATOM     21 C13  LIG L   1      42.212  33.546  77.029  1.00  0.00     0.133 C 
ATOM     22 C14  LIG L   1      44.320  32.708  78.064  1.00  0.00     0.142 C 
ATOM     23 C15  LIG L   1      42.060  32.051  76.737  1.00  0.00     0.179 C 
ATOM     24 C16  LIG L   1      43.361  31.718  78.756  1.00  0.00     0.110 C 
ATOM     25  O4  LIG L   1      42.317  31.222  77.880  1.00  0.00    -0.368 OA
ATOM     26 C17  LIG L   1      44.091  30.499  79.299  1.00  0.00     0.067 C 
ATOM     27 C18  LIG L   1      42.740  32.282  80.042  1.00  0.00     0.196 C 
ATOM     28 C19  LIG L   1      43.137  30.010  80.367  1.00  0.00     0.163 C 
ATOM     29  O5  LIG L   1      42.565  31.181  80.957  1.00  0.00    -0.377 OA
ENDBRANCH   18   20
ENDBRANCH    3   13
TORSDOF 4
ENDMDL
MODEL 8
REMARK VINA RESULT:    -6.319      6.425      7.765
REMARK ITER + INTRA:           -8.770
REMARK INTER:                  -8.140
REMARK INTRA:                  -0.630
REMARK UNBOUND:                -0.973
REMARK Flexibility Score: inf
REMARK Active torsions [ 4 ] -> [ 4 ]
ROOT
ATOM      1  C1  LIG L   1      46.635  29.908  78.388  1.00  0.00     0.213 C 
ATOM      2  C2  LIG L   1      46.258  31.370  78.506  1.00  0.00     0.163 C 
ATOM      3  N1  LIG L   1      45.077  31.369  79.322  1.00  0.00    -0.234 N 
ATOM      4  C3  LIG L   1      44.829  30.082  79.784  1.00  0.00     0.408 C 
ATOM      5  O1  LIG L   1      43.925  29.701  80.507  1.00  0.00    -0.226 OA
ATOM      6  O2  LIG L   1      45.792  29.220  79.322  1.00  0.00    -0.444 O 
ENDROOT
BRANCH    1    7
ATOM      7  C4  LIG L   1      46.473  29.333  76.965  1.00  0.00     0.150 C 
BRANCH    7    8
ATOM      8  N2  LIG L   1      46.850  27.929  76.842  1.00  0.00    -0.312 N 
ATOM      9  C5  LIG L   1      47.288  25.847  75.667  1.00  0.00     0.109 C 
ATOM     10  C6  LIG L   1      46.802  27.275  75.631  1.00  0.00     0.210 C 
ATOM     11  O3  LIG L   1      46.400  27.798  74.594  1.00  0.00    -0.276 OA
ATOM     12  H1  LIG L   1      47.145  27.438  77.643  1.00  0.00     0.149 HD
ENDBRANCH    7    8
ENDBRANCH    1    7
BRANCH    3   13
ATOM     13  C7  LIG L   1      44.386  32.560  79.682  1.00  0.00     0.042 A 
ATOM     14  C8  LIG L   1      44.943  33.520  80.532  1.00  0.00     0.025 A 
ATOM     15  C9  LIG L   1      43.114  32.826  79.167  1.00  0.00     0.063 A 
ATOM     16 C10  LIG L   1      44.266  34.717  80.841  1.00  0.00     0.028 A 
ATOM     17 C11  LIG L   1      42.448  34.017  79.480  1.00  0.00     0.146 A 
ATOM     18 C12  LIG L   1      43.001  34.997  80.320  1.00  0.00     0.066 A 
ATOM     19  F1  LIG L   1      41.227  34.202  78.948  1.00  0.00    -0.203 F 
BRANCH   18   20
ATOM     20  N3  LIG L   1      42.309  36.189  80.587  1.00  0.00    -0.323 N 
ATOM     21 C13  LIG L   1      42.064  36.620  81.977  1.00  0.00     0.133 C 
ATOM     22 C14  LIG L   1      42.674  37.285  79.654  1.00  0.00     0.142 C 
ATOM     23 C15  LIG L   1      42.796  37.932  82.274  1.00  0.00     0.179 C 
ATOM     24 C16  LIG L   1      42.043  38.628  80.077  1.00  0.00     0.110 C 
ATOM     25  O4  LIG L   1      42.376  39.017  81.434  1.00  0.00    -0.368 OA
ATOM     26 C17  LIG L   1      42.477  39.774  79.176  1.00  0.00     0.067 C 
ATOM     27 C18  LIG L   1      40.521  38.664  79.881  1.00  0.00     0.196 C 
ATOM     28 C19  LIG L   1      41.364  40.778  79.385  1.00  0.00     0.163 C 
ATOM     29  O5  LIG L   1      40.161  40.016  79.528  1.00  0.00    -0.377 OA
ENDBRANCH   18   20
ENDBRANCH    3   13
TORSDOF 4
ENDMDL
MODEL 9
REMARK VINA RESULT:    -6.319      6.036      9.408
REMARK ITER + INTRA:           -8.770
REMARK INTER:                  -8.058
REMARK INTRA:                  -0.712
REMARK UNBOUND:                -0.973
REMARK Flexibility Score: inf
REMARK Active torsions [ 4 ] -> [ 4 ]
ROOT
ATOM      1  C1  LIG L   1      42.732  33.044  77.968  1.00  0.00     0.213 C 
ATOM      2  C2  LIG L   1      41.981  34.127  78.716  1.00  0.00     0.163 C 
ATOM      3  N1  LIG L   1      43.012  34.968  79.255  1.00  0.00    -0.234 N 
ATOM      4  C3  LIG L   1      44.250  34.553  78.779  1.00  0.00     0.408 C 
ATOM      5  O1  LIG L   1      45.346  35.032  79.012  1.00  0.00    -0.226 OA
ATOM      6  O2  LIG L   1      44.099  33.477  77.942  1.00  0.00    -0.444 O 
ENDROOT
BRANCH    1    7
ATOM      7  C4  LIG L   1      42.604  31.643  78.601  1.00  0.00     0.150 C 
BRANCH    7    8
ATOM      8  N2  LIG L   1      43.881  30.992  78.873  1.00  0.00    -0.312 N 
ATOM      9  C5  LIG L   1      45.381  29.426  79.971  1.00  0.00     0.109 C 
ATOM     10  C6  LIG L   1      44.010  30.049  79.868  1.00  0.00     0.210 C 
ATOM     11  O3  LIG L   1      43.093  29.726  80.619  1.00  0.00    -0.276 OA
ATOM     12  H1  LIG L   1      44.668  31.233  78.332  1.00  0.00     0.149 HD
ENDBRANCH    7    8
ENDBRANCH    1    7
BRANCH    3   13
ATOM     13  C7  LIG L   1      42.734  36.122  80.040  1.00  0.00     0.042 A 
ATOM     14  C8  LIG L   1      42.333  37.335  79.471  1.00  0.00     0.025 A 
ATOM     15  C9  LIG L   1      42.831  36.073  81.433  1.00  0.00     0.063 A 
ATOM     16 C10  LIG L   1      42.015  38.456  80.264  1.00  0.00     0.028 A 
ATOM     17 C11  LIG L   1      42.516  37.192  82.214  1.00  0.00     0.146 A 
ATOM     18 C12  LIG L   1      42.095  38.411  81.657  1.00  0.00     0.066 A 
ATOM     19  F1  LIG L   1      42.634  37.069  83.547  1.00  0.00    -0.203 F 
BRANCH   18   20
ATOM     20  N3  LIG L   1      41.764  39.500  82.479  1.00  0.00    -0.323 N 
ATOM     21 C13  LIG L   1      42.385  40.822  82.263  1.00  0.00     0.133 C 
ATOM     22 C14  LIG L   1      40.318  39.543  82.818  1.00  0.00     0.142 C 
ATOM     23 C15  LIG L   1      41.331  41.854  81.852  1.00  0.00     0.179 C 
ATOM     24 C16  LIG L   1      39.947  40.841  83.565  1.00  0.00     0.110 C 
ATOM     25  O4  LIG L   1      40.310  42.045  82.842  1.00  0.00    -0.368 OA
ATOM     26 C17  LIG L   1      38.453  40.933  83.843  1.00  0.00     0.067 C 
ATOM     27 C18  LIG L   1      40.512  40.896  84.991  1.00  0.00     0.196 C 
ATOM     28 C19  LIG L   1      38.410  41.898  85.008  1.00  0.00     0.163 C 
ATOM     29  O5  LIG L   1      39.562  41.613  85.806  1.00  0.00    -0.377 OA
ENDBRANCH   18   20
ENDBRANCH    3   13
TORSDOF 4
ENDMDL
MODEL 10
REMARK VINA RESULT:    -6.297      6.012      9.566
REMARK ITER + INTRA:           -8.742
REMARK INTER:                  -8.096
REMARK INTRA:                  -0.646
REMARK UNBOUND:                -0.973
REMARK Flexibility Score: inf
REMARK Active torsions [ 4 ] -> [ 4 ]
ROOT
ATOM      1  C1  LIG L   1      42.871  33.052  77.937  1.00  0.00     0.213 C 
ATOM      2  C2  LIG L   1      41.994  34.052  78.661  1.00  0.00     0.163 C 
ATOM      3  N1  LIG L   1      42.917  34.872  79.393  1.00  0.00    -0.234 N 
ATOM      4  C3  LIG L   1      44.220  34.527  79.052  1.00  0.00     0.408 C 
ATOM      5  O1  LIG L   1      45.260  35.013  79.462  1.00  0.00    -0.226 OA
ATOM      6  O2  LIG L   1      44.215  33.519  78.122  1.00  0.00    -0.444 O 
ENDROOT
BRANCH    1    7
ATOM      7  C4  LIG L   1      42.713  31.601  78.440  1.00  0.00     0.150 C 
BRANCH    7    8
ATOM      8  N2  LIG L   1      43.969  30.954  78.801  1.00  0.00    -0.312 N 
ATOM      9  C5  LIG L   1      45.401  29.432  80.042  1.00  0.00     0.109 C 
ATOM     10  C6  LIG L   1      44.042  30.059  79.846  1.00  0.00     0.210 C 
ATOM     11  O3  LIG L   1      43.088  29.781  80.567  1.00  0.00    -0.276 OA
ATOM     12  H1  LIG L   1      44.783  31.162  78.287  1.00  0.00     0.149 HD
ENDBRANCH    7    8
ENDBRANCH    1    7
BRANCH    3   13
ATOM     13  C7  LIG L   1      42.502  35.953  80.221  1.00  0.00     0.042 A 
ATOM     14  C8  LIG L   1      42.349  35.820  81.605  1.00  0.00     0.025 A 
ATOM     15  C9  LIG L   1      42.253  37.213  79.670  1.00  0.00     0.063 A 
ATOM     16 C10  LIG L   1      41.983  36.911  82.417  1.00  0.00     0.028 A 
ATOM     17 C11  LIG L   1      41.889  38.292  80.485  1.00  0.00     0.146 A 
ATOM     18 C12  LIG L   1      41.747  38.177  81.878  1.00  0.00     0.066 A 
ATOM     19  F1  LIG L   1      41.665  39.473  79.884  1.00  0.00    -0.203 F 
BRANCH   18   20
ATOM     20  N3  LIG L   1      41.406  39.292  82.660  1.00  0.00    -0.323 N 
ATOM     21 C13  LIG L   1      40.076  39.920  82.532  1.00  0.00     0.133 C 
ATOM     22 C14  LIG L   1      41.912  39.193  84.053  1.00  0.00     0.142 C 
ATOM     23 C15  LIG L   1      39.285  39.782  83.836  1.00  0.00     0.179 C 
ATOM     24 C16  LIG L   1      41.372  40.334  84.938  1.00  0.00     0.110 C 
ATOM     25  O4  LIG L   1      39.924  40.413  84.955  1.00  0.00    -0.368 OA
ATOM     26 C17  LIG L   1      41.818  40.196  86.386  1.00  0.00     0.067 C 
ATOM     27 C18  LIG L   1      41.965  41.704  84.581  1.00  0.00     0.196 C 
ATOM     28 C19  LIG L   1      41.691  41.616  86.892  1.00  0.00     0.163 C 
ATOM     29  O5  LIG L   1      42.071  42.463  85.803  1.00  0.00    -0.377 OA
ENDBRANCH   18   20
ENDBRANCH    3   13
TORSDOF 4
ENDMDL
MODEL 11
REMARK VINA RESULT:    -6.270      5.965      9.175
REMARK ITER + INTRA:           -8.710
REMARK INTER:                  -8.262
REMARK INTRA:                  -0.448
REMARK UNBOUND:                -0.973
REMARK Flexibility Score: inf
REMARK Active torsions [ 4 ] -> [ 4 ]
ROOT
ATOM      1  C1  LIG L   1      43.610  31.868  78.701  1.00  0.00     0.213 C 
ATOM      2  C2  LIG L   1      43.834  33.041  79.632  1.00  0.00     0.163 C 
ATOM      3  N1  LIG L   1      42.757  33.942  79.335  1.00  0.00    -0.234 N 
ATOM      4  C3  LIG L   1      41.881  33.344  78.438  1.00  0.00     0.408 C 
ATOM      5  O1  LIG L   1      40.852  33.801  77.969  1.00  0.00    -0.226 OA
ATOM      6  O2  LIG L   1      42.315  32.081  78.123  1.00  0.00    -0.444 O 
ENDROOT
BRANCH    1    7
ATOM      7  C4  LIG L   1      44.689  31.722  77.607  1.00  0.00     0.150 C 
BRANCH    7    8
ATOM      8  N2  LIG L   1      45.208  30.367  77.457  1.00  0.00    -0.312 N 
ATOM      9  C5  LIG L   1      46.807  28.670  76.771  1.00  0.00     0.109 C 
ATOM     10  C6  LIG L   1      46.378  30.117  76.775  1.00  0.00     0.210 C 
ATOM     11  O3  LIG L   1      47.034  30.990  76.211  1.00  0.00    -0.276 OA
ATOM     12  H1  LIG L   1      44.710  29.615  77.852  1.00  0.00     0.149 HD
ENDBRANCH    7    8
ENDBRANCH    1    7
BRANCH    3   13
ATOM     13  C7  LIG L   1      42.590  35.191  79.998  1.00  0.00     0.042 A 
ATOM     14  C8  LIG L   1      42.221  36.356  79.317  1.00  0.00     0.025 A 
ATOM     15  C9  LIG L   1      42.769  35.290  81.381  1.00  0.00     0.063 A 
ATOM     16 C10  LIG L   1      42.013  37.574  79.994  1.00  0.00     0.028 A 
ATOM     17 C11  LIG L   1      42.562  36.505  82.045  1.00  0.00     0.146 A 
ATOM     18 C12  LIG L   1      42.175  37.679  81.377  1.00  0.00     0.066 A 
ATOM     19  F1  LIG L   1      42.755  36.524  83.375  1.00  0.00    -0.203 F 
BRANCH   18   20
ATOM     20  N3  LIG L   1      41.953  38.870  82.087  1.00  0.00    -0.323 N 
ATOM     21 C13  LIG L   1      42.389  40.167  81.533  1.00  0.00     0.133 C 
ATOM     22 C14  LIG L   1      40.630  38.897  82.761  1.00  0.00     0.142 C 
ATOM     23 C15  LIG L   1      41.182  41.066  81.248  1.00  0.00     0.179 C 
ATOM     24 C16  LIG L   1      40.334  40.280  83.378  1.00  0.00     0.110 C 
ATOM     25  O4  LIG L   1      40.410  41.365  82.420  1.00  0.00    -0.368 OA
ATOM     26 C17  LIG L   1      38.946  40.343  83.999  1.00  0.00     0.067 C 
ATOM     27 C18  LIG L   1      41.212  40.595  84.597  1.00  0.00     0.196 C 
ATOM     28 C19  LIG L   1      39.094  41.482  84.985  1.00  0.00     0.163 C 
ATOM     29  O5  LIG L   1      40.423  41.387  85.507  1.00  0.00    -0.377 OA
ENDBRANCH   18   20
ENDBRANCH    3   13
TORSDOF 4
ENDMDL
MODEL 12
REMARK VINA RESULT:    -6.270      5.609      9.297
REMARK ITER + INTRA:           -8.709
REMARK INTER:                  -8.006
REMARK INTRA:                  -0.703
REMARK UNBOUND:                -0.973
REMARK Flexibility Score: inf
REMARK Active torsions [ 4 ] -> [ 4 ]
ROOT
ATOM      1  C1  LIG L   1      43.587  31.878  78.677  1.00  0.00     0.213 C 
ATOM      2  C2  LIG L   1      43.822  33.042  79.617  1.00  0.00     0.163 C 
ATOM      3  N1  LIG L   1      42.734  33.939  79.353  1.00  0.00    -0.234 N 
ATOM      4  C3  LIG L   1      41.844  33.346  78.466  1.00  0.00     0.408 C 
ATOM      5  O1  LIG L   1      40.803  33.803  78.024  1.00  0.00    -0.226 OA
ATOM      6  O2  LIG L   1      42.279  32.090  78.127  1.00  0.00    -0.444 O 
ENDROOT
BRANCH    1    7
ATOM      7  C4  LIG L   1      44.645  31.753  77.560  1.00  0.00     0.150 C 
BRANCH    7    8
ATOM      8  N2  LIG L   1      45.580  32.870  77.496  1.00  0.00    -0.312 N 
ATOM      9  C5  LIG L   1      46.344  35.086  76.854  1.00  0.00     0.109 C 
ATOM     10  C6  LIG L   1      45.302  33.999  76.758  1.00  0.00     0.210 C 
ATOM     11  O3  LIG L   1      44.290  34.129  76.073  1.00  0.00    -0.276 OA
ATOM     12  H1  LIG L   1      46.430  32.815  77.991  1.00  0.00     0.149 HD
ENDBRANCH    7    8
ENDBRANCH    1    7
BRANCH    3   13
ATOM     13  C7  LIG L   1      42.573  35.179  80.034  1.00  0.00     0.042 A 
ATOM     14  C8  LIG L   1      42.180  36.349  79.375  1.00  0.00     0.025 A 
ATOM     15  C9  LIG L   1      42.781  35.263  81.413  1.00  0.00     0.063 A 
ATOM     16 C10  LIG L   1      41.979  37.558  80.071  1.00  0.00     0.028 A 
ATOM     17 C11  LIG L   1      42.580  36.469  82.096  1.00  0.00     0.146 A 
ATOM     18 C12  LIG L   1      42.170  37.647  81.451  1.00  0.00     0.066 A 
ATOM     19  F1  LIG L   1      42.801  36.473  83.422  1.00  0.00    -0.203 F 
BRANCH   18   20
ATOM     20  N3  LIG L   1      41.955  38.828  82.180  1.00  0.00    -0.323 N 
ATOM     21 C13  LIG L   1      42.417  40.129  81.657  1.00  0.00     0.133 C 
ATOM     22 C14  LIG L   1      40.623  38.862  82.835  1.00  0.00     0.142 C 
ATOM     23 C15  LIG L   1      41.228  41.050  81.371  1.00  0.00     0.179 C 
ATOM     24 C16  LIG L   1      40.338  40.238  83.474  1.00  0.00     0.110 C 
ATOM     25  O4  LIG L   1      40.444  41.340  82.537  1.00  0.00    -0.368 OA
ATOM     26 C17  LIG L   1      38.942  40.310  84.076  1.00  0.00     0.067 C 
ATOM     27 C18  LIG L   1      41.203  40.517  84.711  1.00  0.00     0.196 C 
ATOM     28 C19  LIG L   1      39.093  41.429  85.085  1.00  0.00     0.163 C 
ATOM     29  O5  LIG L   1      40.412  41.304  85.624  1.00  0.00    -0.377 OA
ENDBRANCH   18   20
ENDBRANCH    3   13
TORSDOF 4
ENDMDL
MODEL 13
REMARK VINA RESULT:    -6.259      5.769      9.432
REMARK ITER + INTRA:           -8.696
REMARK INTER:                  -7.908
REMARK INTRA:                  -0.788
REMARK UNBOUND:                -0.973
REMARK Flexibility Score: inf
REMARK Active torsions [ 4 ] -> [ 4 ]
ROOT
ATOM      1  C1  LIG L   1      44.971  33.230  78.341  1.00  0.00     0.213 C 
ATOM      2  C2  LIG L   1      44.781  34.671  78.767  1.00  0.00     0.163 C 
ATOM      3  N1  LIG L   1      43.777  34.611  79.790  1.00  0.00    -0.234 N 
ATOM      4  C3  LIG L   1      43.481  33.284  80.077  1.00  0.00     0.408 C 
ATOM      5  O1  LIG L   1      42.689  32.848  80.895  1.00  0.00    -0.226 OA
ATOM      6  O2  LIG L   1      44.244  32.450  79.300  1.00  0.00    -0.444 O 
ENDROOT
BRANCH    1    7
ATOM      7  C4  LIG L   1      44.490  32.934  76.904  1.00  0.00     0.150 C 
BRANCH    7    8
ATOM      8  N2  LIG L   1      43.266  33.632  76.529  1.00  0.00    -0.312 N 
ATOM      9  C5  LIG L   1      40.884  33.852  76.095  1.00  0.00     0.109 C 
ATOM     10  C6  LIG L   1      42.063  32.969  76.427  1.00  0.00     0.210 C 
ATOM     11  O3  LIG L   1      41.940  31.758  76.592  1.00  0.00    -0.276 OA
ATOM     12  H1  LIG L   1      43.300  34.599  76.345  1.00  0.00     0.149 HD
ENDBRANCH    7    8
ENDBRANCH    1    7
BRANCH    3   13
ATOM     13  C7  LIG L   1      43.296  35.766  80.469  1.00  0.00     0.042 A 
ATOM     14  C8  LIG L   1      43.776  36.150  81.725  1.00  0.00     0.025 A 
ATOM     15  C9  LIG L   1      42.328  36.584  79.880  1.00  0.00     0.063 A 
ATOM     16 C10  LIG L   1      43.325  37.323  82.363  1.00  0.00     0.028 A 
ATOM     17 C11  LIG L   1      41.884  37.746  80.521  1.00  0.00     0.146 A 
ATOM     18 C12  LIG L   1      42.369  38.153  81.775  1.00  0.00     0.066 A 
ATOM     19  F1  LIG L   1      40.950  38.482  79.893  1.00  0.00    -0.203 F 
BRANCH   18   20
ATOM     20  N3  LIG L   1      41.915  39.340  82.371  1.00  0.00    -0.323 N 
ATOM     21 C13  LIG L   1      42.258  40.653  81.787  1.00  0.00     0.133 C 
ATOM     22 C14  LIG L   1      40.522  39.232  82.876  1.00  0.00     0.142 C 
ATOM     23 C15  LIG L   1      40.998  41.373  81.298  1.00  0.00     0.179 C 
ATOM     24 C16  LIG L   1      39.983  40.596  83.357  1.00  0.00     0.110 C 
ATOM     25  O4  LIG L   1      40.051  41.631  82.344  1.00  0.00    -0.368 OA
ATOM     26 C17  LIG L   1      38.530  40.512  83.800  1.00  0.00     0.067 C 
ATOM     27 C18  LIG L   1      40.653  41.084  84.649  1.00  0.00     0.196 C 
ATOM     28 C19  LIG L   1      38.411  41.711  84.716  1.00  0.00     0.163 C 
ATOM     29  O5  LIG L   1      39.662  41.815  85.401  1.00  0.00    -0.377 OA
ENDBRANCH   18   20
ENDBRANCH    3   13
TORSDOF 4
ENDMDL
MODEL 14
REMARK VINA RESULT:    -6.239      5.655      8.508
REMARK ITER + INTRA:           -8.671
REMARK INTER:                  -8.289
REMARK INTRA:                  -0.382
REMARK UNBOUND:                -0.973
REMARK Flexibility Score: inf
REMARK Active torsions [ 4 ] -> [ 4 ]
ROOT
ATOM      1  C1  LIG L   1      45.655  30.988  78.639  1.00  0.00     0.213 C 
ATOM      2  C2  LIG L   1      45.543  32.381  79.222  1.00  0.00     0.163 C 
ATOM      3  N1  LIG L   1      44.158  32.723  79.067  1.00  0.00    -0.234 N 
ATOM      4  C3  LIG L   1      43.458  31.624  78.584  1.00  0.00     0.408 C 
ATOM      5  O1  LIG L   1      42.266  31.537  78.340  1.00  0.00    -0.226 OA
ATOM      6  O2  LIG L   1      44.305  30.559  78.414  1.00  0.00    -0.444 O 
ENDROOT
BRANCH    1    7
ATOM      7  C4  LIG L   1      46.484  30.919  77.338  1.00  0.00     0.150 C 
BRANCH    7    8
ATOM      8  N2  LIG L   1      46.127  29.810  76.461  1.00  0.00    -0.312 N 
ATOM      9  C5  LIG L   1      46.549  27.887  75.036  1.00  0.00     0.109 C 
ATOM     10  C6  LIG L   1      47.090  29.033  75.857  1.00  0.00     0.210 C 
ATOM     11  O3  LIG L   1      48.295  29.239  75.969  1.00  0.00    -0.276 OA
ATOM     12  H1  LIG L   1      45.176  29.614  76.297  1.00  0.00     0.149 HD
ENDBRANCH    7    8
ENDBRANCH    1    7
BRANCH    3   13
ATOM     13  C7  LIG L   1      43.618  33.969  79.491  1.00  0.00     0.042 A 
ATOM     14  C8  LIG L   1      42.828  34.091  80.640  1.00  0.00     0.025 A 
ATOM     15  C9  LIG L   1      43.885  35.140  78.775  1.00  0.00     0.063 A 
ATOM     16 C10  LIG L   1      42.340  35.339  81.073  1.00  0.00     0.028 A 
ATOM     17 C11  LIG L   1      43.394  36.375  79.213  1.00  0.00     0.146 A 
ATOM     18 C12  LIG L   1      42.614  36.515  80.373  1.00  0.00     0.066 A 
ATOM     19  F1  LIG L   1      43.691  37.457  78.471  1.00  0.00    -0.203 F 
BRANCH   18   20
ATOM     20  N3  LIG L   1      42.165  37.778  80.789  1.00  0.00    -0.323 N 
ATOM     21 C13  LIG L   1      41.538  38.707  79.828  1.00  0.00     0.133 C 
ATOM     22 C14  LIG L   1      41.522  37.745  82.128  1.00  0.00     0.142 C 
ATOM     23 C15  LIG L   1      40.075  38.964  80.199  1.00  0.00     0.179 C 
ATOM     24 C16  LIG L   1      40.876  39.101  82.483  1.00  0.00     0.110 C 
ATOM     25  O4  LIG L   1      39.915  39.556  81.497  1.00  0.00    -0.368 OA
ATOM     26 C17  LIG L   1      40.144  39.054  83.816  1.00  0.00     0.067 C 
ATOM     27 C18  LIG L   1      41.907  40.204  82.756  1.00  0.00     0.196 C 
ATOM     28 C19  LIG L   1      40.114  40.515  84.210  1.00  0.00     0.163 C 
ATOM     29  O5  LIG L   1      41.356  41.072  83.767  1.00  0.00    -0.377 OA
ENDBRANCH   18   20
ENDBRANCH    3   13
TORSDOF 4
ENDMDL
MODEL 15
REMARK VINA RESULT:    -6.222      6.910      9.709
REMARK ITER + INTRA:           -8.650
REMARK INTER:                  -7.945
REMARK INTRA:                  -0.704
REMARK UNBOUND:                -0.973
REMARK Flexibility Score: inf
REMARK Active torsions [ 4 ] -> [ 4 ]
ROOT
ATOM      1  C1  LIG L   1      40.087  40.558  85.030  1.00  0.00     0.213 C 
ATOM      2  C2  LIG L   1      40.009  39.595  83.864  1.00  0.00     0.163 C 
ATOM      3  N1  LIG L   1      41.375  39.409  83.464  1.00  0.00    -0.234 N 
ATOM      4  C3  LIG L   1      42.216  40.054  84.361  1.00  0.00     0.408 C 
ATOM      5  O1  LIG L   1      43.435  40.105  84.350  1.00  0.00    -0.226 OA
ATOM      6  O2  LIG L   1      41.482  40.660  85.348  1.00  0.00    -0.444 O 
ENDROOT
BRANCH    1    7
ATOM      7  C4  LIG L   1      39.481  41.947  84.736  1.00  0.00     0.150 C 
BRANCH    7    8
ATOM      8  N2  LIG L   1      38.090  41.912  84.298  1.00  0.00    -0.312 N 
ATOM      9  C5  LIG L   1      35.710  42.386  84.437  1.00  0.00     0.109 C 
ATOM     10  C6  LIG L   1      37.081  42.446  85.068  1.00  0.00     0.210 C 
ATOM     11  O3  LIG L   1      37.263  42.939  86.178  1.00  0.00    -0.276 OA
ATOM     12  H1  LIG L   1      37.869  41.496  83.434  1.00  0.00     0.149 HD
ENDBRANCH    7    8
ENDBRANCH    1    7
BRANCH    3   13
ATOM     13  C7  LIG L   1      41.754  38.564  82.383  1.00  0.00     0.042 A 
ATOM     14  C8  LIG L   1      42.098  37.221  82.568  1.00  0.00     0.025 A 
ATOM     15  C9  LIG L   1      41.771  39.051  81.073  1.00  0.00     0.063 A 
ATOM     16 C10  LIG L   1      42.425  36.384  81.483  1.00  0.00     0.028 A 
ATOM     17 C11  LIG L   1      42.099  38.213  80.001  1.00  0.00     0.146 A 
ATOM     18 C12  LIG L   1      42.431  36.859  80.170  1.00  0.00     0.066 A 
ATOM     19  F1  LIG L   1      42.094  38.754  78.770  1.00  0.00    -0.203 F 
BRANCH   18   20
ATOM     20  N3  LIG L   1      42.728  36.048  79.063  1.00  0.00    -0.323 N 
ATOM     21 C13  LIG L   1      44.100  35.987  78.523  1.00  0.00     0.133 C 
ATOM     22 C14  LIG L   1      42.018  34.743  79.101  1.00  0.00     0.142 C 
ATOM     23 C15  LIG L   1      44.682  34.580  78.683  1.00  0.00     0.179 C 
ATOM     24 C16  LIG L   1      42.498  33.802  77.977  1.00  0.00     0.110 C 
ATOM     25  O4  LIG L   1      43.930  33.573  77.990  1.00  0.00    -0.368 OA
ATOM     26 C17  LIG L   1      41.838  32.433  78.057  1.00  0.00     0.067 C 
ATOM     27 C18  LIG L   1      42.054  34.257  76.580  1.00  0.00     0.196 C 
ATOM     28 C19  LIG L   1      41.983  31.930  76.637  1.00  0.00     0.163 C 
ATOM     29  O5  LIG L   1      41.822  33.073  75.791  1.00  0.00    -0.377 OA
ENDBRANCH   18   20
ENDBRANCH    3   13
TORSDOF 4
ENDMDL
MODEL 16
REMARK VINA RESULT:    -6.220      1.496      2.430
REMARK ITER + INTRA:           -8.648
REMARK INTER:                  -7.916
REMARK INTRA:                  -0.732
REMARK UNBOUND:                -0.973
REMARK Flexibility Score: inf
REMARK Active torsions [ 4 ] -> [ 4 ]
ROOT
ATOM      1  C1  LIG L   1      41.981  33.580  79.141  1.00  0.00     0.213 C 
ATOM      2  C2  LIG L   1      43.203  34.363  78.711  1.00  0.00     0.163 C 
ATOM      3  N1  LIG L   1      43.206  34.261  77.279  1.00  0.00    -0.234 N 
ATOM      4  C3  LIG L   1      42.048  33.622  76.854  1.00  0.00     0.408 C 
ATOM      5  O1  LIG L   1      41.702  33.369  75.712  1.00  0.00    -0.226 OA
ATOM      6  O2  LIG L   1      41.264  33.295  77.931  1.00  0.00    -0.444 O 
ENDROOT
BRANCH    1    7
ATOM      7  C4  LIG L   1      42.308  32.282  79.911  1.00  0.00     0.150 C 
BRANCH    7    8
ATOM      8  N2  LIG L   1      43.529  31.619  79.471  1.00  0.00    -0.312 N 
ATOM      9  C5  LIG L   1      45.104  29.778  79.275  1.00  0.00     0.109 C 
ATOM     10  C6  LIG L   1      43.838  30.339  79.876  1.00  0.00     0.210 C 
ATOM     11  O3  LIG L   1      43.149  29.692  80.660  1.00  0.00    -0.276 OA
ATOM     12  H1  LIG L   1      44.147  32.097  78.871  1.00  0.00     0.149 HD
ENDBRANCH    7    8
ENDBRANCH    1    7
BRANCH    3   13
ATOM     13  C7  LIG L   1      44.204  34.866  76.464  1.00  0.00     0.042 A 
ATOM     14  C8  LIG L   1      44.266  36.248  76.257  1.00  0.00     0.025 A 
ATOM     15  C9  LIG L   1      45.190  34.085  75.852  1.00  0.00     0.063 A 
ATOM     16 C10  LIG L   1      45.288  36.836  75.487  1.00  0.00     0.028 A 
ATOM     17 C11  LIG L   1      46.201  34.679  75.087  1.00  0.00     0.146 A 
ATOM     18 C12  LIG L   1      46.284  36.066  74.884  1.00  0.00     0.066 A 
ATOM     19  F1  LIG L   1      47.113  33.864  74.529  1.00  0.00    -0.203 F 
BRANCH   18   20
ATOM     20  N3  LIG L   1      47.331  36.620  74.130  1.00  0.00    -0.323 N 
ATOM     21 C13  LIG L   1      47.061  37.263  72.829  1.00  0.00     0.133 C 
ATOM     22 C14  LIG L   1      48.334  37.323  74.972  1.00  0.00     0.142 C 
ATOM     23 C15  LIG L   1      47.395  38.757  72.884  1.00  0.00     0.179 C 
ATOM     24 C16  LIG L   1      49.370  38.076  74.112  1.00  0.00     0.110 C 
ATOM     25  O4  LIG L   1      48.773  39.018  73.186  1.00  0.00    -0.368 OA
ATOM     26 C17  LIG L   1      50.353  38.867  74.964  1.00  0.00     0.067 C 
ATOM     27 C18  LIG L   1      50.325  37.138  73.362  1.00  0.00     0.196 C 
ATOM     28 C19  LIG L   1      51.532  39.015  74.027  1.00  0.00     0.163 C 
ATOM     29  O5  LIG L   1      51.606  37.796  73.283  1.00  0.00    -0.377 OA
ENDBRANCH   18   20
ENDBRANCH    3   13
TORSDOF 4
ENDMDL
MODEL 17
REMARK VINA RESULT:    -6.219      4.686      9.759
REMARK ITER + INTRA:           -8.647
REMARK INTER:                  -8.017
REMARK INTRA:                  -0.630
REMARK UNBOUND:                -0.973
REMARK Flexibility Score: inf
REMARK Active torsions [ 4 ] -> [ 4 ]
ROOT
ATOM      1  C1  LIG L   1      41.239  32.701  77.409  1.00  0.00     0.213 C 
ATOM      2  C2  LIG L   1      42.308  31.638  77.268  1.00  0.00     0.163 C 
ATOM      3  N1  LIG L   1      43.005  31.664  78.522  1.00  0.00    -0.234 N 
ATOM      4  C3  LIG L   1      42.360  32.528  79.397  1.00  0.00     0.408 C 
ATOM      5  O1  LIG L   1      42.656  32.795  80.550  1.00  0.00    -0.226 OA
ATOM      6  O2  LIG L   1      41.259  33.080  78.793  1.00  0.00    -0.444 O 
ENDROOT
BRANCH    1    7
ATOM      7  C4  LIG L   1      41.451  33.926  76.495  1.00  0.00     0.150 C 
BRANCH    7    8
ATOM      8  N2  LIG L   1      42.810  34.064  75.985  1.00  0.00    -0.312 N 
ATOM      9  C5  LIG L   1      45.124  34.808  76.017  1.00  0.00     0.109 C 
ATOM     10  C6  LIG L   1      43.750  34.827  76.642  1.00  0.00     0.210 C 
ATOM     11  O3  LIG L   1      43.507  35.476  77.656  1.00  0.00    -0.276 OA
ATOM     12  H1  LIG L   1      43.062  33.600  75.154  1.00  0.00     0.149 HD
ENDBRANCH    7    8
ENDBRANCH    1    7
BRANCH    3   13
ATOM     13  C7  LIG L   1      44.103  30.806  78.814  1.00  0.00     0.042 A 
ATOM     14  C8  LIG L   1      45.191  30.661  77.947  1.00  0.00     0.025 A 
ATOM     15  C9  LIG L   1      44.142  30.085  80.011  1.00  0.00     0.063 A 
ATOM     16 C10  LIG L   1      46.292  29.845  78.272  1.00  0.00     0.028 A 
ATOM     17 C11  LIG L   1      45.240  29.275  80.325  1.00  0.00     0.146 A 
ATOM     18 C12  LIG L   1      46.347  29.133  79.471  1.00  0.00     0.066 A 
ATOM     19  F1  LIG L   1      45.206  28.612  81.494  1.00  0.00    -0.203 F 
BRANCH   18   20
ATOM     20  N3  LIG L   1      47.438  28.330  79.838  1.00  0.00    -0.323 N 
ATOM     21 C13  LIG L   1      48.432  28.814  80.817  1.00  0.00     0.133 C 
ATOM     22 C14  LIG L   1      47.074  26.897  79.982  1.00  0.00     0.142 C 
ATOM     23 C15  LIG L   1      48.411  27.949  82.081  1.00  0.00     0.179 C 
ATOM     24 C16  LIG L   1      48.239  26.069  80.561  1.00  0.00     0.110 C 
ATOM     25  O4  LIG L   1      48.729  26.572  81.829  1.00  0.00    -0.368 OA
ATOM     26 C17  LIG L   1      47.849  24.615  80.790  1.00  0.00     0.067 C 
ATOM     27 C18  LIG L   1      49.406  25.904  79.577  1.00  0.00     0.196 C 
ATOM     28 C19  LIG L   1      49.195  23.924  80.784  1.00  0.00     0.163 C 
ATOM     29  O5  LIG L   1      49.990  24.607  79.810  1.00  0.00    -0.377 OA
ENDBRANCH   18   20
ENDBRANCH    3   13
TORSDOF 4
ENDMDL
MODEL 18
REMARK VINA RESULT:    -6.206      5.902      8.730
REMARK ITER + INTRA:           -8.631
REMARK INTER:                  -7.774
REMARK INTRA:                  -0.857
REMARK UNBOUND:                -0.973
REMARK Flexibility Score: inf
REMARK Active torsions [ 4 ] -> [ 4 ]
ROOT
ATOM      1  C1  LIG L   1      42.334  41.140  81.743  1.00  0.00     0.213 C 
ATOM      2  C2  LIG L   1      43.066  39.860  81.396  1.00  0.00     0.163 C 
ATOM      3  N1  LIG L   1      42.022  38.898  81.184  1.00  0.00    -0.234 N 
ATOM      4  C3  LIG L   1      40.786  39.530  81.242  1.00  0.00     0.408 C 
ATOM      5  O1  LIG L   1      39.679  39.038  81.098  1.00  0.00    -0.226 OA
ATOM      6  O2  LIG L   1      40.950  40.872  81.476  1.00  0.00    -0.444 O 
ENDROOT
BRANCH    1    7
ATOM      7  C4  LIG L   1      42.540  41.602  83.201  1.00  0.00     0.150 C 
BRANCH    7    8
ATOM      8  N2  LIG L   1      42.868  40.525  84.128  1.00  0.00    -0.312 N 
ATOM      9  C5  LIG L   1      42.394  38.722  85.687  1.00  0.00     0.109 C 
ATOM     10  C6  LIG L   1      41.888  39.851  84.823  1.00  0.00     0.210 C 
ATOM     11  O3  LIG L   1      40.694  40.131  84.754  1.00  0.00    -0.276 OA
ATOM     12  H1  LIG L   1      43.811  40.275  84.260  1.00  0.00     0.149 HD
ENDBRANCH    7    8
ENDBRANCH    1    7
BRANCH    3   13
ATOM     13  C7  LIG L   1      42.280  37.543  80.833  1.00  0.00     0.042 A 
ATOM     14  C8  LIG L   1      42.332  36.520  81.785  1.00  0.00     0.025 A 
ATOM     15  C9  LIG L   1      42.467  37.180  79.496  1.00  0.00     0.063 A 
ATOM     16 C10  LIG L   1      42.541  35.176  81.416  1.00  0.00     0.028 A 
ATOM     17 C11  LIG L   1      42.675  35.842  79.139  1.00  0.00     0.146 A 
ATOM     18 C12  LIG L   1      42.714  34.802  80.083  1.00  0.00     0.066 A 
ATOM     19  F1  LIG L   1      42.848  35.570  77.834  1.00  0.00    -0.203 F 
BRANCH   18   20
ATOM     20  N3  LIG L   1      42.900  33.471  79.677  1.00  0.00    -0.323 N 
ATOM     21 C13  LIG L   1      41.780  32.696  79.106  1.00  0.00     0.133 C 
ATOM     22 C14  LIG L   1      44.208  33.252  79.009  1.00  0.00     0.142 C 
ATOM     23 C15  LIG L   1      42.066  32.327  77.648  1.00  0.00     0.179 C 
ATOM     24 C16  LIG L   1      44.313  31.833  78.412  1.00  0.00     0.110 C 
ATOM     25  O4  LIG L   1      43.240  31.517  77.489  1.00  0.00    -0.368 OA
ATOM     26 C17  LIG L   1      45.616  31.626  77.655  1.00  0.00     0.067 C 
ATOM     27 C18  LIG L   1      44.421  30.737  79.482  1.00  0.00     0.196 C 
ATOM     28 C19  LIG L   1      45.757  30.119  77.677  1.00  0.00     0.163 C 
ATOM     29  O5  LIG L   1      45.257  29.691  78.947  1.00  0.00    -0.377 OA
ENDBRANCH   18   20
ENDBRANCH    3   13
TORSDOF 4
ENDMDL
MODEL 19
REMARK VINA RESULT:    -6.206      4.751      8.769
REMARK ITER + INTRA:           -8.630
REMARK INTER:                  -7.801
REMARK INTRA:                  -0.829
REMARK UNBOUND:                -0.973
REMARK Flexibility Score: inf
REMARK Active torsions [ 4 ] -> [ 4 ]
ROOT
ATOM      1  C1  LIG L   1      41.695  32.947  78.746  1.00  0.00     0.213 C 
ATOM      2  C2  LIG L   1      42.442  31.788  78.120  1.00  0.00     0.163 C 
ATOM      3  N1  LIG L   1      43.720  31.793  78.775  1.00  0.00    -0.234 N 
ATOM      4  C3  LIG L   1      43.720  32.741  79.791  1.00  0.00     0.408 C 
ATOM      5  O1  LIG L   1      44.622  33.018  80.564  1.00  0.00    -0.226 OA
ATOM      6  O2  LIG L   1      42.502  33.368  79.854  1.00  0.00    -0.444 O 
ENDROOT
BRANCH    1    7
ATOM      7  C4  LIG L   1      41.429  34.118  77.775  1.00  0.00     0.150 C 
BRANCH    7    8
ATOM      8  N2  LIG L   1      42.383  35.216  77.890  1.00  0.00    -0.312 N 
ATOM      9  C5  LIG L   1      44.359  36.504  77.306  1.00  0.00     0.109 C 
ATOM     10  C6  LIG L   1      43.516  35.268  77.108  1.00  0.00     0.210 C 
ATOM     11  O3  LIG L   1      43.829  34.390  76.309  1.00  0.00    -0.276 OA
ATOM     12  H1  LIG L   1      42.212  35.935  78.540  1.00  0.00     0.149 HD
ENDBRANCH    7    8
ENDBRANCH    1    7
BRANCH    3   13
ATOM     13  C7  LIG L   1      44.744  30.850  78.477  1.00  0.00     0.042 A 
ATOM     14  C8  LIG L   1      45.143  29.866  79.388  1.00  0.00     0.025 A 
ATOM     15  C9  LIG L   1      45.378  30.861  77.232  1.00  0.00     0.063 A 
ATOM     16 C10  LIG L   1      46.125  28.910  79.061  1.00  0.00     0.028 A 
ATOM     17 C11  LIG L   1      46.353  29.907  76.916  1.00  0.00     0.146 A 
ATOM     18 C12  LIG L   1      46.753  28.904  77.814  1.00  0.00     0.066 A 
ATOM     19  F1  LIG L   1      46.919  29.982  75.699  1.00  0.00    -0.203 F 
BRANCH   18   20
ATOM     20  N3  LIG L   1      47.717  27.952  77.446  1.00  0.00    -0.323 N 
ATOM     21 C13  LIG L   1      48.696  27.454  78.432  1.00  0.00     0.133 C 
ATOM     22 C14  LIG L   1      47.177  26.914  76.530  1.00  0.00     0.142 C 
ATOM     23 C15  LIG L   1      48.493  25.957  78.686  1.00  0.00     0.179 C 
ATOM     24 C16  LIG L   1      48.197  25.783  76.287  1.00  0.00     0.110 C 
ATOM     25  O4  LIG L   1      48.662  25.155  77.508  1.00  0.00    -0.368 OA
ATOM     26 C17  LIG L   1      47.624  24.674  75.417  1.00  0.00     0.067 C 
ATOM     27 C18  LIG L   1      49.396  26.228  75.438  1.00  0.00     0.196 C 
ATOM     28 C19  LIG L   1      48.877  24.033  74.859  1.00  0.00     0.163 C 
ATOM     29  O5  LIG L   1      49.807  25.098  74.642  1.00  0.00    -0.377 OA
ENDBRANCH   18   20
ENDBRANCH    3   13
TORSDOF 4
ENDMDL
MODEL 20
REMARK VINA RESULT:    -6.152      5.626      8.339
REMARK ITER + INTRA:           -8.564
REMARK INTER:                  -8.122
REMARK INTRA:                  -0.442
REMARK UNBOUND:                -0.973
REMARK Flexibility Score: inf
REMARK Active torsions [ 4 ] -> [ 4 ]
ROOT
ATOM      1  C1  LIG L   1      42.585  35.227  78.786  1.00  0.00     0.213 C 
ATOM      2  C2  LIG L   1      43.858  34.505  78.396  1.00  0.00     0.163 C 
ATOM      3  N1  LIG L   1      43.561  33.118  78.609  1.00  0.00    -0.234 N 
ATOM      4  C3  LIG L   1      42.221  32.974  78.947  1.00  0.00     0.408 C 
ATOM      5  O1  LIG L   1      41.610  31.946  79.188  1.00  0.00    -0.226 OA
ATOM      6  O2  LIG L   1      41.602  34.198  78.964  1.00  0.00    -0.444 O 
ENDROOT
BRANCH    1    7
ATOM      7  C4  LIG L   1      42.721  36.092  80.058  1.00  0.00     0.150 C 
BRANCH    7    8
ATOM      8  N2  LIG L   1      41.567  36.942  80.328  1.00  0.00    -0.312 N 
ATOM      9  C5  LIG L   1      40.260  38.990  80.262  1.00  0.00     0.109 C 
ATOM     10  C6  LIG L   1      41.555  38.272  79.972  1.00  0.00     0.210 C 
ATOM     11  O3  LIG L   1      42.512  38.844  79.456  1.00  0.00    -0.276 OA
ATOM     12  H1  LIG L   1      40.779  36.556  80.774  1.00  0.00     0.149 HD
ENDBRANCH    7    8
ENDBRANCH    1    7
BRANCH    3   13
ATOM     13  C7  LIG L   1      44.502  32.079  78.361  1.00  0.00     0.042 A 
ATOM     14  C8  LIG L   1      44.564  30.922  79.144  1.00  0.00     0.025 A 
ATOM     15  C9  LIG L   1      45.395  32.173  77.289  1.00  0.00     0.063 A 
ATOM     16 C10  LIG L   1      45.469  29.881  78.856  1.00  0.00     0.028 A 
ATOM     17 C11  LIG L   1      46.292  31.134  77.012  1.00  0.00     0.146 A 
ATOM     18 C12  LIG L   1      46.355  29.959  77.779  1.00  0.00     0.066 A 
ATOM     19  F1  LIG L   1      47.121  31.296  75.966  1.00  0.00    -0.203 F 
BRANCH   18   20
ATOM     20  N3  LIG L   1      47.253  28.932  77.449  1.00  0.00    -0.323 N 
ATOM     21 C13  LIG L   1      47.996  28.215  78.504  1.00  0.00     0.133 C 
ATOM     22 C14  LIG L   1      46.756  28.070  76.346  1.00  0.00     0.142 C 
ATOM     23 C15  LIG L   1      47.588  26.740  78.545  1.00  0.00     0.179 C 
ATOM     24 C16  LIG L   1      47.669  26.846  76.125  1.00  0.00     0.110 C 
ATOM     25  O4  LIG L   1      47.855  26.044  77.319  1.00  0.00    -0.368 OA
ATOM     26 C17  LIG L   1      47.125  25.912  75.054  1.00  0.00     0.067 C 
ATOM     27 C18  LIG L   1      49.033  27.213  75.525  1.00  0.00     0.196 C 
ATOM     28 C19  LIG L   1      48.372  25.173  74.618  1.00  0.00     0.163 C 
ATOM     29  O5  LIG L   1      49.439  26.125  74.671  1.00  0.00    -0.377 OA
ENDBRANCH   18   20
ENDBRANCH    3   13
TORSDOF 4
ENDMDL
