MODEL 1
REMARK VINA RESULT:    -6.871      0.000      0.000
REMARK ITER + INTRA:           -9.279
REMARK INTER:                  -8.589
REMARK INTRA:                  -0.690
REMARK UNBOUND:                -0.801
REMARK Flexibility Score: inf
REMARK Active torsions [ 4 ] -> [ 4 ]
ROOT
ATOM      1  C1  LIG L   1      43.274  33.255  80.212  1.00  0.00     0.213 C 
ATOM      2  C2  LIG L   1      43.482  32.037  79.337  1.00  0.00     0.163 C 
ATOM      3  N1  LIG L   1      44.904  31.890  79.265  1.00  0.00    -0.234 N 
ATOM      4  C3  LIG L   1      45.520  32.965  79.891  1.00  0.00     0.408 C 
ATOM      5  O1  LIG L   1      46.712  33.204  79.992  1.00  0.00    -0.226 OA
ATOM      6  O2  LIG L   1      44.579  33.802  80.424  1.00  0.00    -0.444 O 
ENDROOT
BRANCH    1    7
ATOM      7  C4  LIG L   1      42.326  34.297  79.604  1.00  0.00     0.150 C 
BRANCH    7    8
ATOM      8  N2  LIG L   1      41.613  33.826  78.424  1.00  0.00    -0.312 N 
ATOM      9  C5  LIG L   1      41.219  33.520  76.059  1.00  0.00     0.109 C 
ATOM     10  C6  LIG L   1      42.001  34.196  77.153  1.00  0.00     0.210 C 
ATOM     11  O3  LIG L   1      42.902  34.993  76.917  1.00  0.00    -0.276 OA
ATOM     12  H1  LIG L   1      40.837  33.231  78.536  1.00  0.00     0.149 HD
ENDBRANCH    7    8
ENDBRANCH    1    7
BRANCH    3   13
ATOM     13  C7  LIG L   1      45.534  30.799  78.608  1.00  0.00     0.042 A 
ATOM     14  C8  LIG L   1      45.712  30.765  77.222  1.00  0.00     0.025 A 
ATOM     15  C9  LIG L   1      46.009  29.704  79.337  1.00  0.00     0.063 A 
ATOM     16 C10  LIG L   1      46.350  29.682  76.594  1.00  0.00     0.028 A 
ATOM     17 C11  LIG L   1      46.644  28.628  78.703  1.00  0.00     0.146 A 
ATOM     18 C12  LIG L   1      46.849  28.587  77.316  1.00  0.00     0.066 A 
ATOM     19  F1  LIG L   1      47.076  27.634  79.496  1.00  0.00    -0.203 F 
BRANCH   18   20
ATOM     20  N3  LIG L   1      47.470  27.538  76.613  1.00  0.00    -0.323 N 
ATOM     21 C13  LIG L   1      48.945  27.541  76.533  1.00  0.00     0.133 C 
ATOM     22 C14  LIG L   1      46.859  27.267  75.287  1.00  0.00     0.142 C 
ATOM     23 C15  LIG L   1      49.426  26.200  75.966  1.00  0.00     0.179 C 
ATOM     24 C16  LIG L   1      47.395  25.937  74.686  1.00  0.00     0.108 C 
ATOM     25  O4  LIG L   1      48.850  25.927  74.680  1.00  0.00    -0.368 OA
ATOM     26 C17  LIG L   1      46.852  24.700  75.426  1.00  0.00     0.041 C 
ATOM     27 C18  LIG L   1      46.942  25.846  73.201  1.00  0.00     0.196 C 
ATOM     28 C19  LIG L   1      47.359  23.406  74.785  1.00  0.00     0.031 C 
ATOM     29  O5  LIG L   1      46.699  24.508  72.736  1.00  0.00    -0.377 OA
ATOM     30 C20  LIG L   1      47.611  23.563  73.288  1.00  0.00     0.160 C 
ENDBRANCH   18   20
ENDBRANCH    3   13
TORSDOF 4
ENDMDL
MODEL 2
REMARK VINA RESULT:    -6.839      1.179      1.284
REMARK ITER + INTRA:           -9.238
REMARK INTER:                  -8.398
REMARK INTRA:                  -0.840
REMARK UNBOUND:                -0.801
REMARK Flexibility Score: inf
REMARK Active torsions [ 4 ] -> [ 4 ]
ROOT
ATOM      1  C1  LIG L   1      42.628  33.708  79.774  1.00  0.00     0.213 C 
ATOM      2  C2  LIG L   1      43.022  32.623  78.794  1.00  0.00     0.163 C 
ATOM      3  N1  LIG L   1      44.340  32.241  79.199  1.00  0.00    -0.234 N 
ATOM      4  C3  LIG L   1      44.784  33.080  80.211  1.00  0.00     0.408 C 
ATOM      5  O1  LIG L   1      45.868  33.087  80.772  1.00  0.00    -0.226 OA
ATOM      6  O2  LIG L   1      43.805  33.977  80.542  1.00  0.00    -0.444 O 
ENDROOT
BRANCH    1    7
ATOM      7  C4  LIG L   1      42.097  34.982  79.104  1.00  0.00     0.150 C 
BRANCH    7    8
ATOM      8  N2  LIG L   1      42.742  35.291  77.835  1.00  0.00    -0.312 N 
ATOM      9  C5  LIG L   1      44.435  36.234  76.390  1.00  0.00     0.109 C 
ATOM     10  C6  LIG L   1      43.838  36.126  77.768  1.00  0.00     0.210 C 
ATOM     11  O3  LIG L   1      44.302  36.725  78.731  1.00  0.00    -0.276 OA
ATOM     12  H1  LIG L   1      42.386  34.896  77.006  1.00  0.00     0.149 HD
ENDBRANCH    7    8
ENDBRANCH    1    7
BRANCH    3   13
ATOM     13  C7  LIG L   1      45.053  31.172  78.591  1.00  0.00     0.042 A 
ATOM     14  C8  LIG L   1      45.365  31.160  77.230  1.00  0.00     0.025 A 
ATOM     15  C9  LIG L   1      45.477  30.076  79.350  1.00  0.00     0.063 A 
ATOM     16 C10  LIG L   1      46.083  30.098  76.653  1.00  0.00     0.028 A 
ATOM     17 C11  LIG L   1      46.192  29.021  78.768  1.00  0.00     0.146 A 
ATOM     18 C12  LIG L   1      46.532  29.003  77.406  1.00  0.00     0.066 A 
ATOM     19  F1  LIG L   1      46.566  28.024  79.586  1.00  0.00    -0.203 F 
BRANCH   18   20
ATOM     20  N3  LIG L   1      47.239  27.977  76.755  1.00  0.00    -0.323 N 
ATOM     21 C13  LIG L   1      48.713  28.052  76.750  1.00  0.00     0.133 C 
ATOM     22 C14  LIG L   1      46.711  27.657  75.403  1.00  0.00     0.142 C 
ATOM     23 C15  LIG L   1      49.289  26.728  76.231  1.00  0.00     0.179 C 
ATOM     24 C16  LIG L   1      47.342  26.346  74.854  1.00  0.00     0.108 C 
ATOM     25  O4  LIG L   1      48.794  26.408  74.922  1.00  0.00    -0.368 OA
ATOM     26 C17  LIG L   1      46.822  25.095  75.586  1.00  0.00     0.041 C 
ATOM     27 C18  LIG L   1      46.972  26.211  73.349  1.00  0.00     0.196 C 
ATOM     28 C19  LIG L   1      47.424  23.818  74.994  1.00  0.00     0.031 C 
ATOM     29  O5  LIG L   1      46.819  24.855  72.895  1.00  0.00    -0.377 OA
ATOM     30 C20  LIG L   1      47.747  23.965  73.509  1.00  0.00     0.160 C 
ENDBRANCH   18   20
ENDBRANCH    3   13
TORSDOF 4
ENDMDL
MODEL 3
REMARK VINA RESULT:    -6.790      6.157     13.141
REMARK ITER + INTRA:           -9.179
REMARK INTER:                  -8.279
REMARK INTRA:                  -0.900
REMARK UNBOUND:                -0.801
REMARK Flexibility Score: inf
REMARK Active torsions [ 4 ] -> [ 4 ]
ROOT
ATOM      1  C1  LIG L   1      42.543  33.348  77.281  1.00  0.00     0.213 C 
ATOM      2  C2  LIG L   1      41.818  34.129  78.356  1.00  0.00     0.163 C 
ATOM      3  N1  LIG L   1      42.817  35.000  78.897  1.00  0.00    -0.234 N 
ATOM      4  C3  LIG L   1      44.052  34.702  78.340  1.00  0.00     0.408 C 
ATOM      5  O1  LIG L   1      45.138  35.201  78.588  1.00  0.00    -0.226 OA
ATOM      6  O2  LIG L   1      43.922  33.706  77.411  1.00  0.00    -0.444 O 
ENDROOT
BRANCH    1    7
ATOM      7  C4  LIG L   1      42.350  31.829  77.385  1.00  0.00     0.150 C 
BRANCH    7    8
ATOM      8  N2  LIG L   1      43.471  31.136  78.005  1.00  0.00    -0.312 N 
ATOM      9  C5  LIG L   1      44.649  29.981  79.772  1.00  0.00     0.109 C 
ATOM     10  C6  LIG L   1      43.456  30.793  79.341  1.00  0.00     0.210 C 
ATOM     11  O3  LIG L   1      42.561  31.105  80.117  1.00  0.00    -0.276 OA
ATOM     12  H1  LIG L   1      44.257  30.906  77.457  1.00  0.00     0.149 HD
ENDBRANCH    7    8
ENDBRANCH    1    7
BRANCH    3   13
ATOM     13  C7  LIG L   1      42.531  35.982  79.883  1.00  0.00     0.042 A 
ATOM     14  C8  LIG L   1      42.395  35.664  81.237  1.00  0.00     0.025 A 
ATOM     15  C9  LIG L   1      42.376  37.326  79.528  1.00  0.00     0.063 A 
ATOM     16 C10  LIG L   1      42.125  36.654  82.197  1.00  0.00     0.028 A 
ATOM     17 C11  LIG L   1      42.107  38.307  80.491  1.00  0.00     0.146 A 
ATOM     18 C12  LIG L   1      41.988  38.008  81.857  1.00  0.00     0.066 A 
ATOM     19  F1  LIG L   1      41.990  39.569  80.047  1.00  0.00    -0.203 F 
BRANCH   18   20
ATOM     20  N3  LIG L   1      41.712  38.938  82.875  1.00  0.00    -0.323 N 
ATOM     21 C13  LIG L   1      42.242  38.661  84.225  1.00  0.00     0.133 C 
ATOM     22 C14  LIG L   1      40.286  39.353  82.931  1.00  0.00     0.142 C 
ATOM     23 C15  LIG L   1      42.062  39.901  85.108  1.00  0.00     0.179 C 
ATOM     24 C16  LIG L   1      40.097  40.574  83.875  1.00  0.00     0.108 C 
ATOM     25  O4  LIG L   1      40.688  40.310  85.179  1.00  0.00    -0.368 OA
ATOM     26 C17  LIG L   1      40.672  41.871  83.277  1.00  0.00     0.041 C 
ATOM     27 C18  LIG L   1      38.575  40.786  84.111  1.00  0.00     0.196 C 
ATOM     28 C19  LIG L   1      40.430  43.063  84.207  1.00  0.00     0.031 C 
ATOM     29  O5  LIG L   1      38.190  42.158  84.304  1.00  0.00    -0.377 OA
ATOM     30 C20  LIG L   1      39.160  42.900  85.037  1.00  0.00     0.160 C 
ENDBRANCH   18   20
ENDBRANCH    3   13
TORSDOF 4
ENDMDL
MODEL 4
REMARK VINA RESULT:    -6.753      6.452      9.459
REMARK ITER + INTRA:           -9.133
REMARK INTER:                  -8.407
REMARK INTRA:                  -0.726
REMARK UNBOUND:                -0.801
REMARK Flexibility Score: inf
REMARK Active torsions [ 4 ] -> [ 4 ]
ROOT
ATOM      1  C1  LIG L   1      42.572  33.847  79.519  1.00  0.00     0.213 C 
ATOM      2  C2  LIG L   1      43.825  34.252  78.773  1.00  0.00     0.163 C 
ATOM      3  N1  LIG L   1      43.360  34.616  77.469  1.00  0.00    -0.234 N 
ATOM      4  C3  LIG L   1      42.006  34.334  77.357  1.00  0.00     0.408 C 
ATOM      5  O1  LIG L   1      41.280  34.469  76.386  1.00  0.00    -0.226 OA
ATOM      6  O2  LIG L   1      41.527  33.845  78.542  1.00  0.00    -0.444 O 
ENDROOT
BRANCH    1    7
ATOM      7  C4  LIG L   1      42.682  32.485  80.218  1.00  0.00     0.150 C 
BRANCH    7    8
ATOM      8  N2  LIG L   1      43.805  31.679  79.761  1.00  0.00    -0.312 N 
ATOM      9  C5  LIG L   1      45.047  29.642  79.369  1.00  0.00     0.109 C 
ATOM     10  C6  LIG L   1      43.873  30.325  80.018  1.00  0.00     0.210 C 
ATOM     11  O3  LIG L   1      43.058  29.717  80.702  1.00  0.00    -0.276 OA
ATOM     12  H1  LIG L   1      44.533  32.110  79.258  1.00  0.00     0.149 HD
ENDBRANCH    7    8
ENDBRANCH    1    7
BRANCH    3   13
ATOM     13  C7  LIG L   1      44.215  35.151  76.468  1.00  0.00     0.042 A 
ATOM     14  C8  LIG L   1      44.987  34.339  75.633  1.00  0.00     0.025 A 
ATOM     15  C9  LIG L   1      44.313  36.533  76.278  1.00  0.00     0.063 A 
ATOM     16 C10  LIG L   1      45.815  34.890  74.640  1.00  0.00     0.028 A 
ATOM     17 C11  LIG L   1      45.141  37.074  75.286  1.00  0.00     0.146 A 
ATOM     18 C12  LIG L   1      45.907  36.273  74.426  1.00  0.00     0.066 A 
ATOM     19  F1  LIG L   1      45.153  38.413  75.177  1.00  0.00    -0.203 F 
BRANCH   18   20
ATOM     20  N3  LIG L   1      46.763  36.747  73.415  1.00  0.00    -0.323 N 
ATOM     21 C13  LIG L   1      47.126  35.817  72.327  1.00  0.00     0.133 C 
ATOM     22 C14  LIG L   1      47.959  37.459  73.936  1.00  0.00     0.142 C 
ATOM     23 C15  LIG L   1      47.836  36.593  71.211  1.00  0.00     0.179 C 
ATOM     24 C16  LIG L   1      48.712  38.195  72.791  1.00  0.00     0.108 C 
ATOM     25  O4  LIG L   1      48.999  37.281  71.696  1.00  0.00    -0.368 OA
ATOM     26 C17  LIG L   1      47.939  39.424  72.278  1.00  0.00     0.041 C 
ATOM     27 C18  LIG L   1      50.085  38.682  73.336  1.00  0.00     0.196 C 
ATOM     28 C19  LIG L   1      48.726  40.154  71.186  1.00  0.00     0.031 C 
ATOM     29  O5  LIG L   1      50.557  39.906  72.746  1.00  0.00    -0.377 OA
ATOM     30 C20  LIG L   1      50.234  40.005  71.362  1.00  0.00     0.160 C 
ENDBRANCH   18   20
ENDBRANCH    3   13
TORSDOF 4
ENDMDL
MODEL 5
REMARK VINA RESULT:    -6.749      2.244      2.868
REMARK ITER + INTRA:           -9.128
REMARK INTER:                  -8.458
REMARK INTRA:                  -0.670
REMARK UNBOUND:                -0.801
REMARK Flexibility Score: inf
REMARK Active torsions [ 4 ] -> [ 4 ]
ROOT
ATOM      1  C1  LIG L   1      42.766  35.208  79.195  1.00  0.00     0.213 C 
ATOM      2  C2  LIG L   1      43.999  34.334  79.113  1.00  0.00     0.163 C 
ATOM      3  N1  LIG L   1      43.494  33.039  78.770  1.00  0.00    -0.234 N 
ATOM      4  C3  LIG L   1      42.107  33.057  78.782  1.00  0.00     0.408 C 
ATOM      5  O1  LIG L   1      41.333  32.134  78.583  1.00  0.00    -0.226 OA
ATOM      6  O2  LIG L   1      41.654  34.316  79.066  1.00  0.00    -0.444 O 
ENDROOT
BRANCH    1    7
ATOM      7  C4  LIG L   1      42.674  36.027  80.490  1.00  0.00     0.150 C 
BRANCH    7    8
ATOM      8  N2  LIG L   1      41.553  36.956  80.519  1.00  0.00    -0.312 N 
ATOM      9  C5  LIG L   1      40.352  38.986  79.986  1.00  0.00     0.109 C 
ATOM     10  C6  LIG L   1      41.645  38.215  79.961  1.00  0.00     0.210 C 
ATOM     11  O3  LIG L   1      42.673  38.675  79.478  1.00  0.00    -0.276 OA
ATOM     12  H1  LIG L   1      40.711  36.680  80.948  1.00  0.00     0.149 HD
ENDBRANCH    7    8
ENDBRANCH    1    7
BRANCH    3   13
ATOM     13  C7  LIG L   1      44.339  31.929  78.502  1.00  0.00     0.042 A 
ATOM     14  C8  LIG L   1      45.047  31.802  77.304  1.00  0.00     0.025 A 
ATOM     15  C9  LIG L   1      44.499  30.909  79.446  1.00  0.00     0.063 A 
ATOM     16 C10  LIG L   1      45.888  30.701  77.066  1.00  0.00     0.028 A 
ATOM     17 C11  LIG L   1      45.339  29.815  79.200  1.00  0.00     0.146 A 
ATOM     18 C12  LIG L   1      46.072  29.682  78.011  1.00  0.00     0.066 A 
ATOM     19  F1  LIG L   1      45.433  28.898  80.177  1.00  0.00    -0.203 F 
BRANCH   18   20
ATOM     20  N3  LIG L   1      46.927  28.610  77.695  1.00  0.00    -0.323 N 
ATOM     21 C13  LIG L   1      48.259  28.580  78.331  1.00  0.00     0.133 C 
ATOM     22 C14  LIG L   1      47.018  28.333  76.238  1.00  0.00     0.142 C 
ATOM     23 C15  LIG L   1      48.919  27.221  78.067  1.00  0.00     0.179 C 
ATOM     24 C16  LIG L   1      47.742  26.982  75.972  1.00  0.00     0.108 C 
ATOM     25  O4  LIG L   1      49.022  26.942  76.663  1.00  0.00    -0.368 OA
ATOM     26 C17  LIG L   1      46.880  25.769  76.365  1.00  0.00     0.041 C 
ATOM     27 C18  LIG L   1      48.054  26.880  74.452  1.00  0.00     0.196 C 
ATOM     28 C19  LIG L   1      47.599  24.455  76.048  1.00  0.00     0.031 C 
ATOM     29  O5  LIG L   1      48.030  25.540  73.931  1.00  0.00    -0.377 OA
ATOM     30 C20  LIG L   1      48.541  24.584  74.855  1.00  0.00     0.160 C 
ENDBRANCH   18   20
ENDBRANCH    3   13
TORSDOF 4
ENDMDL
MODEL 6
REMARK VINA RESULT:    -6.720      1.930      2.515
REMARK ITER + INTRA:           -9.092
REMARK INTER:                  -8.471
REMARK INTRA:                  -0.620
REMARK UNBOUND:                -0.801
REMARK Flexibility Score: inf
REMARK Active torsions [ 4 ] -> [ 4 ]
ROOT
ATOM      1  C1  LIG L   1      43.442  34.420  80.105  1.00  0.00     0.213 C 
ATOM      2  C2  LIG L   1      44.584  33.674  79.450  1.00  0.00     0.163 C 
ATOM      3  N1  LIG L   1      44.140  32.314  79.401  1.00  0.00    -0.234 N 
ATOM      4  C3  LIG L   1      42.934  32.190  80.076  1.00  0.00     0.408 C 
ATOM      5  O1  LIG L   1      42.278  31.181  80.280  1.00  0.00    -0.226 OA
ATOM      6  O2  LIG L   1      42.521  33.412  80.532  1.00  0.00    -0.444 O 
ENDROOT
BRANCH    1    7
ATOM      7  C4  LIG L   1      43.877  35.308  81.278  1.00  0.00     0.150 C 
BRANCH    7    8
ATOM      8  N2  LIG L   1      42.779  36.032  81.905  1.00  0.00    -0.312 N 
ATOM      9  C5  LIG L   1      41.172  37.821  82.157  1.00  0.00     0.109 C 
ATOM     10  C6  LIG L   1      42.395  37.282  81.464  1.00  0.00     0.210 C 
ATOM     11  O3  LIG L   1      42.978  37.906  80.585  1.00  0.00    -0.276 OA
ATOM     12  H1  LIG L   1      42.302  35.621  82.662  1.00  0.00     0.149 HD
ENDBRANCH    7    8
ENDBRANCH    1    7
BRANCH    3   13
ATOM     13  C7  LIG L   1      44.884  31.282  78.770  1.00  0.00     0.042 A 
ATOM     14  C8  LIG L   1      45.147  31.283  77.398  1.00  0.00     0.025 A 
ATOM     15  C9  LIG L   1      45.394  30.212  79.514  1.00  0.00     0.063 A 
ATOM     16 C10  LIG L   1      45.898  30.258  76.797  1.00  0.00     0.028 A 
ATOM     17 C11  LIG L   1      46.141  29.195  78.907  1.00  0.00     0.146 A 
ATOM     18 C12  LIG L   1      46.431  29.191  77.534  1.00  0.00     0.066 A 
ATOM     19  F1  LIG L   1      46.596  28.221  79.713  1.00  0.00    -0.203 F 
BRANCH   18   20
ATOM     20  N3  LIG L   1      47.167  28.200  76.858  1.00  0.00    -0.323 N 
ATOM     21 C13  LIG L   1      48.640  28.281  76.910  1.00  0.00     0.133 C 
ATOM     22 C14  LIG L   1      46.689  27.945  75.475  1.00  0.00     0.142 C 
ATOM     23 C15  LIG L   1      49.241  26.987  76.347  1.00  0.00     0.179 C 
ATOM     24 C16  LIG L   1      47.347  26.666  74.884  1.00  0.00     0.108 C 
ATOM     25  O4  LIG L   1      48.795  26.730  75.007  1.00  0.00    -0.368 OA
ATOM     26 C17  LIG L   1      46.809  25.378  75.535  1.00  0.00     0.041 C 
ATOM     27 C18  LIG L   1      47.031  26.605  73.363  1.00  0.00     0.196 C 
ATOM     28 C19  LIG L   1      47.439  24.135  74.902  1.00  0.00     0.031 C 
ATOM     29  O5  LIG L   1      46.903  25.272  72.837  1.00  0.00    -0.377 OA
ATOM     30 C20  LIG L   1      47.813  24.356  73.439  1.00  0.00     0.160 C 
ENDBRANCH   18   20
ENDBRANCH    3   13
TORSDOF 4
ENDMDL
MODEL 7
REMARK VINA RESULT:    -6.714      4.863      7.914
REMARK ITER + INTRA:           -9.085
REMARK INTER:                  -8.439
REMARK INTRA:                  -0.647
REMARK UNBOUND:                -0.801
REMARK Flexibility Score: inf
REMARK Active torsions [ 4 ] -> [ 4 ]
ROOT
ATOM      1  C1  LIG L   1      41.820  40.264  81.750  1.00  0.00     0.213 C 
ATOM      2  C2  LIG L   1      42.620  38.979  81.725  1.00  0.00     0.163 C 
ATOM      3  N1  LIG L   1      41.880  38.116  80.856  1.00  0.00    -0.234 N 
ATOM      4  C3  LIG L   1      40.685  38.723  80.496  1.00  0.00     0.408 C 
ATOM      5  O1  LIG L   1      39.783  38.276  79.806  1.00  0.00    -0.226 OA
ATOM      6  O2  LIG L   1      40.611  39.976  81.041  1.00  0.00    -0.444 O 
ENDROOT
BRANCH    1    7
ATOM      7  C4  LIG L   1      41.526  40.781  83.164  1.00  0.00     0.150 C 
BRANCH    7    8
ATOM      8  N2  LIG L   1      40.180  41.313  83.328  1.00  0.00    -0.312 N 
ATOM      9  C5  LIG L   1      37.856  41.275  83.994  1.00  0.00     0.109 C 
ATOM     10  C6  LIG L   1      39.143  40.523  83.779  1.00  0.00     0.210 C 
ATOM     11  O3  LIG L   1      39.243  39.321  83.997  1.00  0.00    -0.276 OA
ATOM     12  H1  LIG L   1      40.007  42.258  83.111  1.00  0.00     0.149 HD
ENDBRANCH    7    8
ENDBRANCH    1    7
BRANCH    3   13
ATOM     13  C7  LIG L   1      42.337  36.824  80.480  1.00  0.00     0.042 A 
ATOM     14  C8  LIG L   1      42.399  35.762  81.385  1.00  0.00     0.025 A 
ATOM     15  C9  LIG L   1      42.746  36.566  79.168  1.00  0.00     0.063 A 
ATOM     16 C10  LIG L   1      42.842  34.488  80.988  1.00  0.00     0.028 A 
ATOM     17 C11  LIG L   1      43.186  35.294  78.780  1.00  0.00     0.146 A 
ATOM     18 C12  LIG L   1      43.235  34.211  79.670  1.00  0.00     0.066 A 
ATOM     19  F1  LIG L   1      43.542  35.148  77.493  1.00  0.00    -0.203 F 
BRANCH   18   20
ATOM     20  N3  LIG L   1      43.673  32.912  79.352  1.00  0.00    -0.323 N 
ATOM     21 C13  LIG L   1      42.888  31.774  79.871  1.00  0.00     0.133 C 
ATOM     22 C14  LIG L   1      45.128  32.706  79.568  1.00  0.00     0.142 C 
ATOM     23 C15  LIG L   1      43.367  30.479  79.204  1.00  0.00     0.179 C 
ATOM     24 C16  LIG L   1      45.600  31.362  78.944  1.00  0.00     0.108 C 
ATOM     25  O4  LIG L   1      44.771  30.261  79.410  1.00  0.00    -0.368 OA
ATOM     26 C17  LIG L   1      45.618  31.406  77.404  1.00  0.00     0.041 C 
ATOM     27 C18  LIG L   1      47.046  31.069  79.434  1.00  0.00     0.196 C 
ATOM     28 C19  LIG L   1      46.130  30.087  76.820  1.00  0.00     0.031 C 
ATOM     29  O5  LIG L   1      47.861  30.359  78.486  1.00  0.00    -0.377 OA
ATOM     30 C20  LIG L   1      47.123  29.391  77.746  1.00  0.00     0.160 C 
ENDBRANCH   18   20
ENDBRANCH    3   13
TORSDOF 4
ENDMDL
MODEL 8
REMARK VINA RESULT:    -6.693      6.610     13.730
REMARK ITER + INTRA:           -9.059
REMARK INTER:                  -8.537
REMARK INTRA:                  -0.522
REMARK UNBOUND:                -0.801
REMARK Flexibility Score: inf
REMARK Active torsions [ 4 ] -> [ 4 ]
ROOT
ATOM      1  C1  LIG L   1      43.008  33.341  78.532  1.00  0.00     0.213 C 
ATOM      2  C2  LIG L   1      42.044  34.334  79.145  1.00  0.00     0.163 C 
ATOM      3  N1  LIG L   1      42.885  35.354  79.692  1.00  0.00    -0.234 N 
ATOM      4  C3  LIG L   1      44.216  34.980  79.573  1.00  0.00     0.408 C 
ATOM      5  O1  LIG L   1      45.209  35.572  79.963  1.00  0.00    -0.226 OA
ATOM      6  O2  LIG L   1      44.312  33.779  78.925  1.00  0.00    -0.444 O 
ENDROOT
BRANCH    1    7
ATOM      7  C4  LIG L   1      42.756  31.889  78.961  1.00  0.00     0.150 C 
BRANCH    7    8
ATOM      8  N2  LIG L   1      43.973  31.114  79.156  1.00  0.00    -0.312 N 
ATOM      9  C5  LIG L   1      45.321  29.294  80.003  1.00  0.00     0.109 C 
ATOM     10  C6  LIG L   1      44.013  30.041  80.022  1.00  0.00     0.210 C 
ATOM     11  O3  LIG L   1      43.079  29.706  80.740  1.00  0.00    -0.276 OA
ATOM     12  H1  LIG L   1      44.786  31.362  78.659  1.00  0.00     0.149 HD
ENDBRANCH    7    8
ENDBRANCH    1    7
BRANCH    3   13
ATOM     13  C7  LIG L   1      42.373  36.538  80.287  1.00  0.00     0.042 A 
ATOM     14  C8  LIG L   1      42.274  36.696  81.672  1.00  0.00     0.025 A 
ATOM     15  C9  LIG L   1      41.945  37.608  79.493  1.00  0.00     0.063 A 
ATOM     16 C10  LIG L   1      41.777  37.882  82.238  1.00  0.00     0.028 A 
ATOM     17 C11  LIG L   1      41.450  38.786  80.066  1.00  0.00     0.146 A 
ATOM     18 C12  LIG L   1      41.363  38.969  81.455  1.00  0.00     0.066 A 
ATOM     19  F1  LIG L   1      41.079  39.759  79.217  1.00  0.00    -0.203 F 
BRANCH   18   20
ATOM     20  N3  LIG L   1      40.871  40.120  82.098  1.00  0.00    -0.323 N 
ATOM     21 C13  LIG L   1      41.362  41.432  81.632  1.00  0.00     0.133 C 
ATOM     22 C14  LIG L   1      40.898  40.029  83.580  1.00  0.00     0.142 C 
ATOM     23 C15  LIG L   1      40.521  42.545  82.269  1.00  0.00     0.179 C 
ATOM     24 C16  LIG L   1      40.094  41.195  84.225  1.00  0.00     0.108 C 
ATOM     25  O4  LIG L   1      40.542  42.477  83.703  1.00  0.00    -0.368 OA
ATOM     26 C17  LIG L   1      38.575  41.036  84.030  1.00  0.00     0.041 C 
ATOM     27 C18  LIG L   1      40.385  41.210  85.753  1.00  0.00     0.196 C 
ATOM     28 C19  LIG L   1      37.809  42.171  84.715  1.00  0.00     0.031 C 
ATOM     29  O5  LIG L   1      39.284  41.661  86.561  1.00  0.00    -0.377 OA
ATOM     30 C20  LIG L   1      38.543  42.707  85.941  1.00  0.00     0.160 C 
ENDBRANCH   18   20
ENDBRANCH    3   13
TORSDOF 4
ENDMDL
MODEL 9
REMARK VINA RESULT:    -6.676      2.877      4.242
REMARK ITER + INTRA:           -9.037
REMARK INTER:                  -8.335
REMARK INTRA:                  -0.702
REMARK UNBOUND:                -0.801
REMARK Flexibility Score: inf
REMARK Active torsions [ 4 ] -> [ 4 ]
ROOT
ATOM      1  C1  LIG L   1      42.781  36.399  80.837  1.00  0.00     0.213 C 
ATOM      2  C2  LIG L   1      43.647  35.158  80.877  1.00  0.00     0.163 C 
ATOM      3  N1  LIG L   1      43.362  34.486  79.646  1.00  0.00    -0.234 N 
ATOM      4  C3  LIG L   1      42.335  35.140  78.980  1.00  0.00     0.408 C 
ATOM      5  O1  LIG L   1      41.796  34.836  77.928  1.00  0.00    -0.226 OA
ATOM      6  O2  LIG L   1      41.951  36.250  79.681  1.00  0.00    -0.444 O 
ENDROOT
BRANCH    1    7
ATOM      7  C4  LIG L   1      41.940  36.606  82.104  1.00  0.00     0.150 C 
BRANCH    7    8
ATOM      8  N2  LIG L   1      40.887  37.600  81.953  1.00  0.00    -0.312 N 
ATOM      9  C5  LIG L   1      39.946  39.826  81.870  1.00  0.00     0.109 C 
ATOM     10  C6  LIG L   1      41.121  38.939  82.188  1.00  0.00     0.210 C 
ATOM     11  O3  LIG L   1      42.182  39.385  82.608  1.00  0.00    -0.276 OA
ATOM     12  H1  LIG L   1      39.987  37.310  81.679  1.00  0.00     0.149 HD
ENDBRANCH    7    8
ENDBRANCH    1    7
BRANCH    3   13
ATOM     13  C7  LIG L   1      44.041  33.307  79.236  1.00  0.00     0.042 A 
ATOM     14  C8  LIG L   1      45.255  33.346  78.547  1.00  0.00     0.025 A 
ATOM     15  C9  LIG L   1      43.509  32.044  79.517  1.00  0.00     0.063 A 
ATOM     16 C10  LIG L   1      45.916  32.166  78.163  1.00  0.00     0.028 A 
ATOM     17 C11  LIG L   1      44.174  30.873  79.131  1.00  0.00     0.146 A 
ATOM     18 C12  LIG L   1      45.404  30.893  78.456  1.00  0.00     0.066 A 
ATOM     19  F1  LIG L   1      43.586  29.711  79.461  1.00  0.00    -0.203 F 
BRANCH   18   20
ATOM     20  N3  LIG L   1      46.122  29.760  78.033  1.00  0.00    -0.323 N 
ATOM     21 C13  LIG L   1      46.756  28.919  79.068  1.00  0.00     0.133 C 
ATOM     22 C14  LIG L   1      47.060  30.034  76.913  1.00  0.00     0.142 C 
ATOM     23 C15  LIG L   1      47.253  27.616  78.431  1.00  0.00     0.179 C 
ATOM     24 C16  LIG L   1      47.610  28.711  76.309  1.00  0.00     0.108 C 
ATOM     25  O4  LIG L   1      48.167  27.864  77.352  1.00  0.00    -0.368 OA
ATOM     26 C17  LIG L   1      46.541  27.946  75.507  1.00  0.00     0.041 C 
ATOM     27 C18  LIG L   1      48.779  29.057  75.344  1.00  0.00     0.196 C 
ATOM     28 C19  LIG L   1      47.123  26.673  74.886  1.00  0.00     0.031 C 
ATOM     29  O5  LIG L   1      48.909  28.163  74.225  1.00  0.00    -0.377 OA
ATOM     30 C20  LIG L   1      48.609  26.813  74.566  1.00  0.00     0.160 C 
ENDBRANCH   18   20
ENDBRANCH    3   13
TORSDOF 4
ENDMDL
MODEL 10
REMARK VINA RESULT:    -6.647      6.375     13.548
REMARK ITER + INTRA:           -9.002
REMARK INTER:                  -8.674
REMARK INTRA:                  -0.328
REMARK UNBOUND:                -0.801
REMARK Flexibility Score: inf
REMARK Active torsions [ 4 ] -> [ 4 ]
ROOT
ATOM      1  C1  LIG L   1      44.110  32.856  79.822  1.00  0.00     0.213 C 
ATOM      2  C2  LIG L   1      44.042  34.193  80.529  1.00  0.00     0.163 C 
ATOM      3  N1  LIG L   1      42.826  34.782  80.057  1.00  0.00    -0.234 N 
ATOM      4  C3  LIG L   1      42.271  33.986  79.066  1.00  0.00     0.408 C 
ATOM      5  O1  LIG L   1      41.264  34.186  78.405  1.00  0.00    -0.226 OA
ATOM      6  O2  LIG L   1      43.030  32.863  78.883  1.00  0.00    -0.444 O 
ENDROOT
BRANCH    1    7
ATOM      7  C4  LIG L   1      45.452  32.593  79.125  1.00  0.00     0.150 C 
BRANCH    7    8
ATOM      8  N2  LIG L   1      45.519  31.306  78.447  1.00  0.00    -0.312 N 
ATOM      9  C5  LIG L   1      46.205  29.748  76.730  1.00  0.00     0.109 C 
ATOM     10  C6  LIG L   1      46.133  31.170  77.219  1.00  0.00     0.210 C 
ATOM     11  O3  LIG L   1      46.589  32.108  76.574  1.00  0.00    -0.276 OA
ATOM     12  H1  LIG L   1      45.117  30.515  78.874  1.00  0.00     0.149 HD
ENDBRANCH    7    8
ENDBRANCH    1    7
BRANCH    3   13
ATOM     13  C7  LIG L   1      42.328  36.019  80.548  1.00  0.00     0.042 A 
ATOM     14  C8  LIG L   1      42.150  36.265  81.912  1.00  0.00     0.025 A 
ATOM     15  C9  LIG L   1      41.998  37.055  79.667  1.00  0.00     0.063 A 
ATOM     16 C10  LIG L   1      41.669  37.502  82.375  1.00  0.00     0.028 A 
ATOM     17 C11  LIG L   1      41.520  38.285  80.137  1.00  0.00     0.146 A 
ATOM     18 C12  LIG L   1      41.353  38.555  81.504  1.00  0.00     0.066 A 
ATOM     19  F1  LIG L   1      41.245  39.217  79.210  1.00  0.00    -0.203 F 
BRANCH   18   20
ATOM     20  N3  LIG L   1      40.872  39.761  82.045  1.00  0.00    -0.323 N 
ATOM     21 C13  LIG L   1      41.404  41.024  81.495  1.00  0.00     0.133 C 
ATOM     22 C14  LIG L   1      40.860  39.783  83.531  1.00  0.00     0.142 C 
ATOM     23 C15  LIG L   1      40.572  42.199  82.024  1.00  0.00     0.179 C 
ATOM     24 C16  LIG L   1      40.068  41.010  84.065  1.00  0.00     0.108 C 
ATOM     25  O4  LIG L   1      40.558  42.239  83.459  1.00  0.00    -0.368 OA
ATOM     26 C17  LIG L   1      38.551  40.868  83.843  1.00  0.00     0.041 C 
ATOM     27 C18  LIG L   1      40.322  41.135  85.594  1.00  0.00     0.196 C 
ATOM     28 C19  LIG L   1      37.794  42.068  84.420  1.00  0.00     0.031 C 
ATOM     29  O5  LIG L   1      39.212  41.669  86.337  1.00  0.00    -0.377 OA
ATOM     30 C20  LIG L   1      38.510  42.680  85.621  1.00  0.00     0.160 C 
ENDBRANCH   18   20
ENDBRANCH    3   13
TORSDOF 4
ENDMDL
MODEL 11
REMARK VINA RESULT:    -6.610      6.155      8.757
REMARK ITER + INTRA:           -8.957
REMARK INTER:                  -8.621
REMARK INTRA:                  -0.336
REMARK UNBOUND:                -0.801
REMARK Flexibility Score: inf
REMARK Active torsions [ 4 ] -> [ 4 ]
ROOT
ATOM      1  C1  LIG L   1      42.318  33.709  79.456  1.00  0.00     0.213 C 
ATOM      2  C2  LIG L   1      43.598  34.193  78.811  1.00  0.00     0.163 C 
ATOM      3  N1  LIG L   1      43.207  34.573  77.487  1.00  0.00    -0.234 N 
ATOM      4  C3  LIG L   1      41.880  34.231  77.273  1.00  0.00     0.408 C 
ATOM      5  O1  LIG L   1      41.216  34.360  76.257  1.00  0.00    -0.226 OA
ATOM      6  O2  LIG L   1      41.344  33.687  78.408  1.00  0.00    -0.444 O 
ENDROOT
BRANCH    1    7
ATOM      7  C4  LIG L   1      42.446  32.334  80.126  1.00  0.00     0.150 C 
BRANCH    7    8
ATOM      8  N2  LIG L   1      43.623  31.585  79.711  1.00  0.00    -0.312 N 
ATOM      9  C5  LIG L   1      45.011  29.624  79.439  1.00  0.00     0.109 C 
ATOM     10  C6  LIG L   1      43.793  30.260  80.055  1.00  0.00     0.210 C 
ATOM     11  O3  LIG L   1      43.030  29.640  80.787  1.00  0.00    -0.276 OA
ATOM     12  H1  LIG L   1      44.314  32.035  79.172  1.00  0.00     0.149 HD
ENDBRANCH    7    8
ENDBRANCH    1    7
BRANCH    3   13
ATOM     13  C7  LIG L   1      44.102  35.176  76.563  1.00  0.00     0.042 A 
ATOM     14  C8  LIG L   1      44.859  34.427  75.659  1.00  0.00     0.025 A 
ATOM     15  C9  LIG L   1      44.255  36.566  76.521  1.00  0.00     0.063 A 
ATOM     16 C10  LIG L   1      45.728  35.046  74.744  1.00  0.00     0.028 A 
ATOM     17 C11  LIG L   1      45.123  37.175  75.606  1.00  0.00     0.146 A 
ATOM     18 C12  LIG L   1      45.876  36.439  74.678  1.00  0.00     0.066 A 
ATOM     19  F1  LIG L   1      45.186  38.516  75.638  1.00  0.00    -0.203 F 
BRANCH   18   20
ATOM     20  N3  LIG L   1      46.770  36.982  73.738  1.00  0.00    -0.323 N 
ATOM     21 C13  LIG L   1      46.552  38.377  73.306  1.00  0.00     0.133 C 
ATOM     22 C14  LIG L   1      47.024  36.091  72.576  1.00  0.00     0.142 C 
ATOM     23 C15  LIG L   1      47.765  38.855  72.498  1.00  0.00     0.179 C 
ATOM     24 C16  LIG L   1      48.216  36.612  71.724  1.00  0.00     0.108 C 
ATOM     25  O4  LIG L   1      48.020  38.009  71.366  1.00  0.00    -0.368 OA
ATOM     26 C17  LIG L   1      49.569  36.424  72.435  1.00  0.00     0.041 C 
ATOM     27 C18  LIG L   1      48.258  35.813  70.391  1.00  0.00     0.196 C 
ATOM     28 C19  LIG L   1      50.727  36.902  71.554  1.00  0.00     0.031 C 
ATOM     29  O5  LIG L   1      49.579  35.620  69.855  1.00  0.00    -0.377 OA
ATOM     30 C20  LIG L   1      50.424  36.748  70.066  1.00  0.00     0.160 C 
ENDBRANCH   18   20
ENDBRANCH    3   13
TORSDOF 4
ENDMDL
MODEL 12
REMARK VINA RESULT:    -6.588      5.835      9.518
REMARK ITER + INTRA:           -8.929
REMARK INTER:                  -8.082
REMARK INTRA:                  -0.848
REMARK UNBOUND:                -0.801
REMARK Flexibility Score: inf
REMARK Active torsions [ 4 ] -> [ 4 ]
ROOT
ATOM      1  C1  LIG L   1      42.001  42.441  81.481  1.00  0.00     0.213 C 
ATOM      2  C2  LIG L   1      42.605  41.054  81.473  1.00  0.00     0.163 C 
ATOM      3  N1  LIG L   1      41.945  40.385  80.394  1.00  0.00    -0.234 N 
ATOM      4  C3  LIG L   1      40.943  41.196  79.880  1.00  0.00     0.408 C 
ATOM      5  O1  LIG L   1      40.147  40.949  78.988  1.00  0.00    -0.226 OA
ATOM      6  O2  LIG L   1      40.933  42.400  80.530  1.00  0.00    -0.444 O 
ENDROOT
BRANCH    1    7
ATOM      7  C4  LIG L   1      41.500  42.889  82.861  1.00  0.00     0.150 C 
BRANCH    7    8
ATOM      8  N2  LIG L   1      40.104  42.561  83.114  1.00  0.00    -0.312 N 
ATOM      9  C5  LIG L   1      38.267  41.332  84.094  1.00  0.00     0.109 C 
ATOM     10  C6  LIG L   1      39.747  41.442  83.837  1.00  0.00     0.210 C 
ATOM     11  O3  LIG L   1      40.546  40.609  84.248  1.00  0.00    -0.276 OA
ATOM     12  H1  LIG L   1      39.399  43.151  82.761  1.00  0.00     0.149 HD
ENDBRANCH    7    8
ENDBRANCH    1    7
BRANCH    3   13
ATOM     13  C7  LIG L   1      42.287  39.070  79.978  1.00  0.00     0.042 A 
ATOM     14  C8  LIG L   1      41.612  37.939  80.445  1.00  0.00     0.025 A 
ATOM     15  C9  LIG L   1      43.327  38.858  79.066  1.00  0.00     0.063 A 
ATOM     16 C10  LIG L   1      41.958  36.649  80.009  1.00  0.00     0.028 A 
ATOM     17 C11  LIG L   1      43.666  37.568  78.637  1.00  0.00     0.146 A 
ATOM     18 C12  LIG L   1      42.986  36.424  79.081  1.00  0.00     0.066 A 
ATOM     19  F1  LIG L   1      44.671  37.475  77.750  1.00  0.00    -0.203 F 
BRANCH   18   20
ATOM     20  N3  LIG L   1      43.276  35.102  78.698  1.00  0.00    -0.323 N 
ATOM     21 C13  LIG L   1      43.081  34.735  77.282  1.00  0.00     0.133 C 
ATOM     22 C14  LIG L   1      42.693  34.079  79.605  1.00  0.00     0.142 C 
ATOM     23 C15  LIG L   1      43.695  33.353  77.024  1.00  0.00     0.179 C 
ATOM     24 C16  LIG L   1      43.273  32.669  79.301  1.00  0.00     0.108 C 
ATOM     25  O4  LIG L   1      43.136  32.352  77.887  1.00  0.00    -0.368 OA
ATOM     26 C17  LIG L   1      44.741  32.531  79.743  1.00  0.00     0.041 C 
ATOM     27 C18  LIG L   1      42.435  31.612  80.077  1.00  0.00     0.196 C 
ATOM     28 C19  LIG L   1      45.269  31.119  79.475  1.00  0.00     0.031 C 
ATOM     29  O5  LIG L   1      43.182  30.459  80.501  1.00  0.00    -0.377 OA
ATOM     30 C20  LIG L   1      44.168  30.066  79.551  1.00  0.00     0.160 C 
ENDBRANCH   18   20
ENDBRANCH    3   13
TORSDOF 4
ENDMDL
MODEL 13
REMARK VINA RESULT:    -6.584      6.386     13.656
REMARK ITER + INTRA:           -8.924
REMARK INTER:                  -8.593
REMARK INTRA:                  -0.332
REMARK UNBOUND:                -0.801
REMARK Flexibility Score: inf
REMARK Active torsions [ 4 ] -> [ 4 ]
ROOT
ATOM      1  C1  LIG L   1      44.017  32.849  79.831  1.00  0.00     0.213 C 
ATOM      2  C2  LIG L   1      43.959  34.179  80.552  1.00  0.00     0.163 C 
ATOM      3  N1  LIG L   1      42.762  34.795  80.066  1.00  0.00    -0.234 N 
ATOM      4  C3  LIG L   1      42.212  34.020  79.054  1.00  0.00     0.408 C 
ATOM      5  O1  LIG L   1      41.222  34.245  78.378  1.00  0.00    -0.226 OA
ATOM      6  O2  LIG L   1      42.956  32.886  78.873  1.00  0.00    -0.444 O 
ENDROOT
BRANCH    1    7
ATOM      7  C4  LIG L   1      45.367  32.572  79.156  1.00  0.00     0.150 C 
BRANCH    7    8
ATOM      8  N2  LIG L   1      45.663  31.155  78.994  1.00  0.00    -0.312 N 
ATOM      9  C5  LIG L   1      46.364  28.951  79.698  1.00  0.00     0.109 C 
ATOM     10  C6  LIG L   1      46.242  30.419  80.007  1.00  0.00     0.210 C 
ATOM     11  O3  LIG L   1      46.621  30.898  81.070  1.00  0.00    -0.276 OA
ATOM     12  H1  LIG L   1      45.445  30.712  78.142  1.00  0.00     0.149 HD
ENDBRANCH    7    8
ENDBRANCH    1    7
BRANCH    3   13
ATOM     13  C7  LIG L   1      42.277  36.034  80.562  1.00  0.00     0.042 A 
ATOM     14  C8  LIG L   1      42.103  36.276  81.927  1.00  0.00     0.025 A 
ATOM     15  C9  LIG L   1      41.955  37.077  79.686  1.00  0.00     0.063 A 
ATOM     16 C10  LIG L   1      41.635  37.516  82.395  1.00  0.00     0.028 A 
ATOM     17 C11  LIG L   1      41.488  38.309  80.161  1.00  0.00     0.146 A 
ATOM     18 C12  LIG L   1      41.327  38.575  81.529  1.00  0.00     0.066 A 
ATOM     19  F1  LIG L   1      41.221  39.247  79.238  1.00  0.00    -0.203 F 
BRANCH   18   20
ATOM     20  N3  LIG L   1      40.858  39.784  82.076  1.00  0.00    -0.323 N 
ATOM     21 C13  LIG L   1      41.415  41.043  81.544  1.00  0.00     0.133 C 
ATOM     22 C14  LIG L   1      40.828  39.792  83.561  1.00  0.00     0.142 C 
ATOM     23 C15  LIG L   1      40.596  42.226  82.074  1.00  0.00     0.179 C 
ATOM     24 C16  LIG L   1      40.049  41.026  84.097  1.00  0.00     0.108 C 
ATOM     25  O4  LIG L   1      40.564  42.253  83.509  1.00  0.00    -0.368 OA
ATOM     26 C17  LIG L   1      38.532  40.910  83.856  1.00  0.00     0.041 C 
ATOM     27 C18  LIG L   1      40.286  41.134  85.630  1.00  0.00     0.196 C 
ATOM     28 C19  LIG L   1      37.787  42.116  84.435  1.00  0.00     0.031 C 
ATOM     29  O5  LIG L   1      39.176  41.678  86.365  1.00  0.00    -0.377 OA
ATOM     30 C20  LIG L   1      38.497  42.706  85.650  1.00  0.00     0.160 C 
ENDBRANCH   18   20
ENDBRANCH    3   13
TORSDOF 4
ENDMDL
MODEL 14
REMARK VINA RESULT:    -6.540      4.167     11.237
REMARK ITER + INTRA:           -8.870
REMARK INTER:                  -8.270
REMARK INTRA:                  -0.600
REMARK UNBOUND:                -0.801
REMARK Flexibility Score: inf
REMARK Active torsions [ 4 ] -> [ 4 ]
ROOT
ATOM      1  C1  LIG L   1      46.042  30.289  78.550  1.00  0.00     0.213 C 
ATOM      2  C2  LIG L   1      45.803  31.783  78.604  1.00  0.00     0.163 C 
ATOM      3  N1  LIG L   1      44.637  31.927  79.421  1.00  0.00    -0.234 N 
ATOM      4  C3  LIG L   1      44.116  30.677  79.721  1.00  0.00     0.408 C 
ATOM      5  O1  LIG L   1      43.109  30.406  80.356  1.00  0.00    -0.226 OA
ATOM      6  O2  LIG L   1      44.906  29.696  79.188  1.00  0.00    -0.444 O 
ENDROOT
BRANCH    1    7
ATOM      7  C4  LIG L   1      46.228  29.744  77.128  1.00  0.00     0.150 C 
BRANCH    7    8
ATOM      8  N2  LIG L   1      46.744  28.383  77.083  1.00  0.00    -0.312 N 
ATOM      9  C5  LIG L   1      47.445  26.320  76.035  1.00  0.00     0.109 C 
ATOM     10  C6  LIG L   1      46.772  27.661  75.908  1.00  0.00     0.210 C 
ATOM     11  O3  LIG L   1      46.304  28.061  74.848  1.00  0.00    -0.276 OA
ATOM     12  H1  LIG L   1      47.081  27.968  77.910  1.00  0.00     0.149 HD
ENDBRANCH    7    8
ENDBRANCH    1    7
BRANCH    3   13
ATOM     13  C7  LIG L   1      44.118  33.192  79.805  1.00  0.00     0.042 A 
ATOM     14  C8  LIG L   1      42.881  33.661  79.354  1.00  0.00     0.025 A 
ATOM     15  C9  LIG L   1      44.837  34.026  80.669  1.00  0.00     0.063 A 
ATOM     16 C10  LIG L   1      42.381  34.911  79.759  1.00  0.00     0.028 A 
ATOM     17 C11  LIG L   1      44.331  35.270  81.067  1.00  0.00     0.146 A 
ATOM     18 C12  LIG L   1      43.083  35.747  80.639  1.00  0.00     0.066 A 
ATOM     19  F1  LIG L   1      45.094  35.987  81.909  1.00  0.00    -0.203 F 
BRANCH   18   20
ATOM     20  N3  LIG L   1      42.518  36.986  80.993  1.00  0.00    -0.323 N 
ATOM     21 C13  LIG L   1      41.868  37.096  82.314  1.00  0.00     0.133 C 
ATOM     22 C14  LIG L   1      41.672  37.579  79.925  1.00  0.00     0.142 C 
ATOM     23 C15  LIG L   1      41.559  38.569  82.609  1.00  0.00     0.179 C 
ATOM     24 C16  LIG L   1      41.308  39.055  80.257  1.00  0.00     0.108 C 
ATOM     25  O4  LIG L   1      40.734  39.155  81.590  1.00  0.00    -0.368 OA
ATOM     26 C17  LIG L   1      42.516  40.000  80.118  1.00  0.00     0.041 C 
ATOM     27 C18  LIG L   1      40.210  39.529  79.263  1.00  0.00     0.196 C 
ATOM     28 C19  LIG L   1      42.118  41.450  80.404  1.00  0.00     0.031 C 
ATOM     29  O5  LIG L   1      40.273  40.927  78.932  1.00  0.00    -0.377 OA
ATOM     30 C20  LIG L   1      40.664  41.734  80.039  1.00  0.00     0.160 C 
ENDBRANCH   18   20
ENDBRANCH    3   13
TORSDOF 4
ENDMDL
MODEL 15
REMARK VINA RESULT:    -6.532      2.532      3.143
REMARK ITER + INTRA:           -8.860
REMARK INTER:                  -8.735
REMARK INTRA:                  -0.126
REMARK UNBOUND:                -0.801
REMARK Flexibility Score: inf
REMARK Active torsions [ 4 ] -> [ 4 ]
ROOT
ATOM      1  C1  LIG L   1      42.512  35.297  79.237  1.00  0.00     0.213 C 
ATOM      2  C2  LIG L   1      43.596  34.640  78.410  1.00  0.00     0.163 C 
ATOM      3  N1  LIG L   1      43.703  33.318  78.949  1.00  0.00    -0.234 N 
ATOM      4  C3  LIG L   1      42.897  33.202  80.072  1.00  0.00     0.408 C 
ATOM      5  O1  LIG L   1      42.763  32.244  80.816  1.00  0.00    -0.226 OA
ATOM      6  O2  LIG L   1      42.213  34.368  80.284  1.00  0.00    -0.444 O 
ENDROOT
BRANCH    1    7
ATOM      7  C4  LIG L   1      42.913  36.665  79.805  1.00  0.00     0.150 C 
BRANCH    7    8
ATOM      8  N2  LIG L   1      42.001  37.741  79.444  1.00  0.00    -0.312 N 
ATOM      9  C5  LIG L   1      40.373  39.484  79.843  1.00  0.00     0.109 C 
ATOM     10  C6  LIG L   1      41.156  38.312  80.374  1.00  0.00     0.210 C 
ATOM     11  O3  LIG L   1      41.046  37.921  81.530  1.00  0.00    -0.276 OA
ATOM     12  H1  LIG L   1      41.986  38.068  78.516  1.00  0.00     0.149 HD
ENDBRANCH    7    8
ENDBRANCH    1    7
BRANCH    3   13
ATOM     13  C7  LIG L   1      44.553  32.326  78.393  1.00  0.00     0.042 A 
ATOM     14  C8  LIG L   1      44.519  30.993  78.811  1.00  0.00     0.025 A 
ATOM     15  C9  LIG L   1      45.468  32.652  77.386  1.00  0.00     0.063 A 
ATOM     16 C10  LIG L   1      45.360  30.025  78.236  1.00  0.00     0.028 A 
ATOM     17 C11  LIG L   1      46.303  31.681  76.818  1.00  0.00     0.146 A 
ATOM     18 C12  LIG L   1      46.267  30.335  77.212  1.00  0.00     0.066 A 
ATOM     19  F1  LIG L   1      47.135  32.096  75.849  1.00  0.00    -0.203 F 
BRANCH   18   20
ATOM     20  N3  LIG L   1      47.079  29.311  76.692  1.00  0.00    -0.323 N 
ATOM     21 C13  LIG L   1      48.524  29.581  76.551  1.00  0.00     0.133 C 
ATOM     22 C14  LIG L   1      46.527  28.679  75.466  1.00  0.00     0.142 C 
ATOM     23 C15  LIG L   1      49.257  28.274  76.224  1.00  0.00     0.179 C 
ATOM     24 C16  LIG L   1      47.311  27.386  75.103  1.00  0.00     0.108 C 
ATOM     25  O4  LIG L   1      48.740  27.655  75.037  1.00  0.00    -0.368 OA
ATOM     26 C17  LIG L   1      47.025  26.233  76.083  1.00  0.00     0.041 C 
ATOM     27 C18  LIG L   1      46.879  26.928  73.681  1.00  0.00     0.196 C 
ATOM     28 C19  LIG L   1      47.774  24.962  75.673  1.00  0.00     0.031 C 
ATOM     29  O5  LIG L   1      46.902  25.504  73.484  1.00  0.00    -0.377 OA
ATOM     30 C20  LIG L   1      47.984  24.875  74.164  1.00  0.00     0.160 C 
ENDBRANCH   18   20
ENDBRANCH    3   13
TORSDOF 4
ENDMDL
MODEL 16
REMARK VINA RESULT:    -6.521      4.775     11.497
REMARK ITER + INTRA:           -8.846
REMARK INTER:                  -8.144
REMARK INTRA:                  -0.702
REMARK UNBOUND:                -0.801
REMARK Flexibility Score: inf
REMARK Active torsions [ 4 ] -> [ 4 ]
ROOT
ATOM      1  C1  LIG L   1      45.380  30.688  79.395  1.00  0.00     0.213 C 
ATOM      2  C2  LIG L   1      45.396  32.174  79.684  1.00  0.00     0.163 C 
ATOM      3  N1  LIG L   1      44.107  32.632  79.264  1.00  0.00    -0.234 N 
ATOM      4  C3  LIG L   1      43.418  31.596  78.649  1.00  0.00     0.408 C 
ATOM      5  O1  LIG L   1      42.313  31.621  78.130  1.00  0.00    -0.226 OA
ATOM      6  O2  LIG L   1      44.163  30.450  78.682  1.00  0.00    -0.444 O 
ENDROOT
BRANCH    1    7
ATOM      7  C4  LIG L   1      46.597  30.200  78.598  1.00  0.00     0.150 C 
BRANCH    7    8
ATOM      8  N2  LIG L   1      46.262  29.282  77.517  1.00  0.00    -0.312 N 
ATOM      9  C5  LIG L   1      46.511  28.235  75.352  1.00  0.00     0.109 C 
ATOM     10  C6  LIG L   1      46.910  29.334  76.301  1.00  0.00     0.210 C 
ATOM     11  O3  LIG L   1      47.743  30.184  76.005  1.00  0.00    -0.276 OA
ATOM     12  H1  LIG L   1      45.557  28.610  77.659  1.00  0.00     0.149 HD
ENDBRANCH    7    8
ENDBRANCH    1    7
BRANCH    3   13
ATOM     13  C7  LIG L   1      43.668  33.970  79.447  1.00  0.00     0.042 A 
ATOM     14  C8  LIG L   1      43.887  34.966  78.492  1.00  0.00     0.025 A 
ATOM     15  C9  LIG L   1      42.985  34.344  80.609  1.00  0.00     0.063 A 
ATOM     16 C10  LIG L   1      43.431  36.281  78.688  1.00  0.00     0.028 A 
ATOM     17 C11  LIG L   1      42.534  35.657  80.798  1.00  0.00     0.146 A 
ATOM     18 C12  LIG L   1      42.728  36.664  79.840  1.00  0.00     0.066 A 
ATOM     19  F1  LIG L   1      41.876  35.909  81.941  1.00  0.00    -0.203 F 
BRANCH   18   20
ATOM     20  N3  LIG L   1      42.310  38.001  79.965  1.00  0.00    -0.323 N 
ATOM     21 C13  LIG L   1      40.859  38.273  79.965  1.00  0.00     0.133 C 
ATOM     22 C14  LIG L   1      43.033  38.937  79.065  1.00  0.00     0.142 C 
ATOM     23 C15  LIG L   1      40.614  39.731  80.371  1.00  0.00     0.179 C 
ATOM     24 C16  LIG L   1      42.734  40.416  79.441  1.00  0.00     0.108 C 
ATOM     25  O4  LIG L   1      41.299  40.648  79.506  1.00  0.00    -0.368 OA
ATOM     26 C17  LIG L   1      43.407  40.831  80.762  1.00  0.00     0.041 C 
ATOM     27 C18  LIG L   1      43.283  41.334  78.312  1.00  0.00     0.196 C 
ATOM     28 C19  LIG L   1      43.134  42.303  81.082  1.00  0.00     0.031 C 
ATOM     29  O5  LIG L   1      43.747  42.618  78.764  1.00  0.00    -0.377 OA
ATOM     30 C20  LIG L   1      42.952  43.145  79.822  1.00  0.00     0.160 C 
ENDBRANCH   18   20
ENDBRANCH    3   13
TORSDOF 4
ENDMDL
MODEL 17
REMARK VINA RESULT:    -6.482      7.656     10.348
REMARK ITER + INTRA:           -8.799
REMARK INTER:                  -8.316
REMARK INTRA:                  -0.483
REMARK UNBOUND:                -0.801
REMARK Flexibility Score: inf
REMARK Active torsions [ 4 ] -> [ 4 ]
ROOT
ATOM      1  C1  LIG L   1      49.115  37.309  69.556  1.00  0.00     0.213 C 
ATOM      2  C2  LIG L   1      48.398  37.543  70.869  1.00  0.00     0.163 C 
ATOM      3  N1  LIG L   1      47.858  36.263  71.211  1.00  0.00    -0.234 N 
ATOM      4  C3  LIG L   1      48.076  35.367  70.174  1.00  0.00     0.408 C 
ATOM      5  O1  LIG L   1      47.721  34.203  70.088  1.00  0.00    -0.226 OA
ATOM      6  O2  LIG L   1      48.783  35.972  69.171  1.00  0.00    -0.444 O 
ENDROOT
BRANCH    1    7
ATOM      7  C4  LIG L   1      48.737  38.314  68.459  1.00  0.00     0.150 C 
BRANCH    7    8
ATOM      8  N2  LIG L   1      47.983  39.460  68.946  1.00  0.00    -0.312 N 
ATOM      9  C5  LIG L   1      47.612  41.781  69.513  1.00  0.00     0.109 C 
ATOM     10  C6  LIG L   1      48.575  40.695  69.113  1.00  0.00     0.210 C 
ATOM     11  O3  LIG L   1      49.770  40.908  68.946  1.00  0.00    -0.276 OA
ATOM     12  H1  LIG L   1      47.028  39.351  69.163  1.00  0.00     0.149 HD
ENDBRANCH    7    8
ENDBRANCH    1    7
BRANCH    3   13
ATOM     13  C7  LIG L   1      47.179  36.016  72.435  1.00  0.00     0.042 A 
ATOM     14  C8  LIG L   1      47.177  34.760  73.047  1.00  0.00     0.025 A 
ATOM     15  C9  LIG L   1      46.479  37.040  73.082  1.00  0.00     0.063 A 
ATOM     16 C10  LIG L   1      46.509  34.542  74.265  1.00  0.00     0.028 A 
ATOM     17 C11  LIG L   1      45.817  36.814  74.295  1.00  0.00     0.146 A 
ATOM     18 C12  LIG L   1      45.821  35.565  74.934  1.00  0.00     0.066 A 
ATOM     19  F1  LIG L   1      45.187  37.867  74.841  1.00  0.00    -0.203 F 
BRANCH   18   20
ATOM     20  N3  LIG L   1      45.173  35.266  76.146  1.00  0.00    -0.323 N 
ATOM     21 C13  LIG L   1      45.737  35.831  77.388  1.00  0.00     0.133 C 
ATOM     22 C14  LIG L   1      44.852  33.824  76.308  1.00  0.00     0.142 C 
ATOM     23 C15  LIG L   1      44.751  35.611  78.542  1.00  0.00     0.179 C 
ATOM     24 C16  LIG L   1      43.901  33.596  77.517  1.00  0.00     0.108 C 
ATOM     25  O4  LIG L   1      44.437  34.221  78.717  1.00  0.00    -0.368 OA
ATOM     26 C17  LIG L   1      42.473  34.101  77.240  1.00  0.00     0.041 C 
ATOM     27 C18  LIG L   1      43.824  32.070  77.806  1.00  0.00     0.196 C 
ATOM     28 C19  LIG L   1      41.548  33.821  78.428  1.00  0.00     0.031 C 
ATOM     29  O5  LIG L   1      42.558  31.627  78.323  1.00  0.00    -0.377 OA
ATOM     30 C20  LIG L   1      41.965  32.575  79.205  1.00  0.00     0.160 C 
ENDBRANCH   18   20
ENDBRANCH    3   13
TORSDOF 4
ENDMDL
MODEL 18
REMARK VINA RESULT:    -6.453      5.001     12.152
REMARK ITER + INTRA:           -8.763
REMARK INTER:                  -8.220
REMARK INTRA:                  -0.543
REMARK UNBOUND:                -0.801
REMARK Flexibility Score: inf
REMARK Active torsions [ 4 ] -> [ 4 ]
ROOT
ATOM      1  C1  LIG L   1      45.622  31.719  78.362  1.00  0.00     0.213 C 
ATOM      2  C2  LIG L   1      45.357  33.187  78.620  1.00  0.00     0.163 C 
ATOM      3  N1  LIG L   1      44.012  33.225  79.108  1.00  0.00    -0.234 N 
ATOM      4  C3  LIG L   1      43.446  31.960  79.026  1.00  0.00     0.408 C 
ATOM      5  O1  LIG L   1      42.310  31.616  79.308  1.00  0.00    -0.226 OA
ATOM      6  O2  LIG L   1      44.365  31.063  78.555  1.00  0.00    -0.444 O 
ENDROOT
BRANCH    1    7
ATOM      7  C4  LIG L   1      46.193  31.430  76.968  1.00  0.00     0.150 C 
BRANCH    7    8
ATOM      8  N2  LIG L   1      46.027  30.048  76.540  1.00  0.00    -0.312 N 
ATOM      9  C5  LIG L   1      46.698  27.947  75.549  1.00  0.00     0.109 C 
ATOM     10  C6  LIG L   1      46.994  29.402  75.798  1.00  0.00     0.210 C 
ATOM     11  O3  LIG L   1      48.010  29.944  75.379  1.00  0.00    -0.276 OA
ATOM     12  H1  LIG L   1      45.205  29.564  76.785  1.00  0.00     0.149 HD
ENDBRANCH    7    8
ENDBRANCH    1    7
BRANCH    3   13
ATOM     13  C7  LIG L   1      43.391  34.419  79.562  1.00  0.00     0.042 A 
ATOM     14  C8  LIG L   1      43.144  35.502  78.715  1.00  0.00     0.025 A 
ATOM     15  C9  LIG L   1      42.993  34.553  80.897  1.00  0.00     0.063 A 
ATOM     16 C10  LIG L   1      42.515  36.668  79.184  1.00  0.00     0.028 A 
ATOM     17 C11  LIG L   1      42.368  35.719  81.357  1.00  0.00     0.146 A 
ATOM     18 C12  LIG L   1      42.094  36.808  80.515  1.00  0.00     0.066 A 
ATOM     19  F1  LIG L   1      42.013  35.740  82.652  1.00  0.00    -0.203 F 
BRANCH   18   20
ATOM     20  N3  LIG L   1      41.478  38.009  80.909  1.00  0.00    -0.323 N 
ATOM     21 C13  LIG L   1      41.021  38.930  79.848  1.00  0.00     0.133 C 
ATOM     22 C14  LIG L   1      42.218  38.736  81.972  1.00  0.00     0.142 C 
ATOM     23 C15  LIG L   1      40.155  40.032  80.469  1.00  0.00     0.179 C 
ATOM     24 C16  LIG L   1      41.360  39.893  82.558  1.00  0.00     0.108 C 
ATOM     25  O4  LIG L   1      40.859  40.750  81.494  1.00  0.00    -0.368 OA
ATOM     26 C17  LIG L   1      40.196  39.378  83.425  1.00  0.00     0.041 C 
ATOM     27 C18  LIG L   1      42.271  40.781  83.453  1.00  0.00     0.196 C 
ATOM     28 C19  LIG L   1      39.398  40.538  84.025  1.00  0.00     0.031 C 
ATOM     29  O5  LIG L   1      41.597  41.383  84.572  1.00  0.00    -0.377 OA
ATOM     30 C20  LIG L   1      40.263  41.774  84.261  1.00  0.00     0.160 C 
ENDBRANCH   18   20
ENDBRANCH    3   13
TORSDOF 4
ENDMDL
MODEL 19
REMARK VINA RESULT:    -6.430      6.561     13.545
REMARK ITER + INTRA:           -8.734
REMARK INTER:                  -7.864
REMARK INTRA:                  -0.871
REMARK UNBOUND:                -0.801
REMARK Flexibility Score: inf
REMARK Active torsions [ 4 ] -> [ 4 ]
ROOT
ATOM      1  C1  LIG L   1      44.693  34.011  78.558  1.00  0.00     0.213 C 
ATOM      2  C2  LIG L   1      44.161  35.421  78.698  1.00  0.00     0.163 C 
ATOM      3  N1  LIG L   1      43.362  35.383  79.885  1.00  0.00    -0.234 N 
ATOM      4  C3  LIG L   1      43.276  34.080  80.353  1.00  0.00     0.408 C 
ATOM      5  O1  LIG L   1      42.650  33.655  81.310  1.00  0.00    -0.226 OA
ATOM      6  O2  LIG L   1      44.023  33.247  79.565  1.00  0.00    -0.444 O 
ENDROOT
BRANCH    1    7
ATOM      7  C4  LIG L   1      44.477  33.406  77.164  1.00  0.00     0.150 C 
BRANCH    7    8
ATOM      8  N2  LIG L   1      43.240  33.830  76.524  1.00  0.00    -0.312 N 
ATOM      9  C5  LIG L   1      40.874  33.766  76.029  1.00  0.00     0.109 C 
ATOM     10  C6  LIG L   1      42.071  33.111  76.666  1.00  0.00     0.210 C 
ATOM     11  O3  LIG L   1      41.994  32.042  77.259  1.00  0.00    -0.276 OA
ATOM     12  H1  LIG L   1      43.238  34.649  75.977  1.00  0.00     0.149 HD
ENDBRANCH    7    8
ENDBRANCH    1    7
BRANCH    3   13
ATOM     13  C7  LIG L   1      42.745  36.538  80.436  1.00  0.00     0.042 A 
ATOM     14  C8  LIG L   1      43.005  36.976  81.737  1.00  0.00     0.025 A 
ATOM     15  C9  LIG L   1      41.841  37.293  79.680  1.00  0.00     0.063 A 
ATOM     16 C10  LIG L   1      42.393  38.130  82.256  1.00  0.00     0.028 A 
ATOM     17 C11  LIG L   1      41.235  38.442  80.206  1.00  0.00     0.146 A 
ATOM     18 C12  LIG L   1      41.501  38.907  81.503  1.00  0.00     0.066 A 
ATOM     19  F1  LIG L   1      40.394  39.103  79.393  1.00  0.00    -0.203 F 
BRANCH   18   20
ATOM     20  N3  LIG L   1      40.925  40.045  82.096  1.00  0.00    -0.323 N 
ATOM     21 C13  LIG L   1      41.325  41.369  81.580  1.00  0.00     0.133 C 
ATOM     22 C14  LIG L   1      40.948  40.016  83.582  1.00  0.00     0.142 C 
ATOM     23 C15  LIG L   1      40.403  42.444  82.168  1.00  0.00     0.179 C 
ATOM     24 C16  LIG L   1      40.061  41.147  84.175  1.00  0.00     0.108 C 
ATOM     25  O4  LIG L   1      40.421  42.435  83.603  1.00  0.00    -0.368 OA
ATOM     26 C17  LIG L   1      38.558  40.873  83.982  1.00  0.00     0.041 C 
ATOM     27 C18  LIG L   1      40.339  41.244  85.702  1.00  0.00     0.196 C 
ATOM     28 C19  LIG L   1      37.709  41.978  84.616  1.00  0.00     0.031 C 
ATOM     29  O5  LIG L   1      39.205  41.649  86.488  1.00  0.00    -0.377 OA
ATOM     30 C20  LIG L   1      38.395  42.614  85.822  1.00  0.00     0.160 C 
ENDBRANCH   18   20
ENDBRANCH    3   13
TORSDOF 4
ENDMDL
MODEL 20
REMARK VINA RESULT:    -6.429      6.084     13.014
REMARK ITER + INTRA:           -8.733
REMARK INTER:                  -7.928
REMARK INTRA:                  -0.805
REMARK UNBOUND:                -0.801
REMARK Flexibility Score: inf
REMARK Active torsions [ 4 ] -> [ 4 ]
ROOT
ATOM      1  C1  LIG L   1      42.823  33.407  77.225  1.00  0.00     0.213 C 
ATOM      2  C2  LIG L   1      41.973  34.164  78.223  1.00  0.00     0.163 C 
ATOM      3  N1  LIG L   1      42.902  35.008  78.912  1.00  0.00    -0.234 N 
ATOM      4  C3  LIG L   1      44.195  34.714  78.506  1.00  0.00     0.408 C 
ATOM      5  O1  LIG L   1      45.244  35.195  78.902  1.00  0.00    -0.226 OA
ATOM      6  O2  LIG L   1      44.177  33.747  77.538  1.00  0.00    -0.444 O 
ENDROOT
BRANCH    1    7
ATOM      7  C4  LIG L   1      42.609  31.888  77.258  1.00  0.00     0.150 C 
BRANCH    7    8
ATOM      8  N2  LIG L   1      43.645  31.164  77.982  1.00  0.00    -0.312 N 
ATOM      9  C5  LIG L   1      44.613  29.976  79.852  1.00  0.00     0.109 C 
ATOM     10  C6  LIG L   1      43.491  30.820  79.309  1.00  0.00     0.210 C 
ATOM     11  O3  LIG L   1      42.531  31.153  79.995  1.00  0.00    -0.276 OA
ATOM     12  H1  LIG L   1      44.475  30.915  77.514  1.00  0.00     0.149 HD
ENDBRANCH    7    8
ENDBRANCH    1    7
BRANCH    3   13
ATOM     13  C7  LIG L   1      42.500  35.964  79.883  1.00  0.00     0.042 A 
ATOM     14  C8  LIG L   1      42.381  35.647  81.238  1.00  0.00     0.025 A 
ATOM     15  C9  LIG L   1      42.207  37.280  79.510  1.00  0.00     0.063 A 
ATOM     16 C10  LIG L   1      41.995  36.613  82.184  1.00  0.00     0.028 A 
ATOM     17 C11  LIG L   1      41.823  38.237  80.458  1.00  0.00     0.146 A 
ATOM     18 C12  LIG L   1      41.718  37.941  81.826  1.00  0.00     0.066 A 
ATOM     19  F1  LIG L   1      41.578  39.475  79.998  1.00  0.00    -0.203 F 
BRANCH   18   20
ATOM     20  N3  LIG L   1      41.332  38.847  82.830  1.00  0.00    -0.323 N 
ATOM     21 C13  LIG L   1      40.049  39.557  82.661  1.00  0.00     0.133 C 
ATOM     22 C14  LIG L   1      42.415  39.780  83.237  1.00  0.00     0.142 C 
ATOM     23 C15  LIG L   1      39.693  40.282  83.965  1.00  0.00     0.179 C 
ATOM     24 C16  LIG L   1      42.025  40.559  84.525  1.00  0.00     0.108 C 
ATOM     25  O4  LIG L   1      40.726  41.194  84.368  1.00  0.00    -0.368 OA
ATOM     26 C17  LIG L   1      42.037  39.662  85.777  1.00  0.00     0.041 C 
ATOM     27 C18  LIG L   1      43.056  41.703  84.743  1.00  0.00     0.196 C 
ATOM     28 C19  LIG L   1      41.696  40.465  87.035  1.00  0.00     0.031 C 
ATOM     29  O5  LIG L   1      43.305  42.023  86.123  1.00  0.00    -0.377 OA
ATOM     30 C20  LIG L   1      42.133  41.923  86.927  1.00  0.00     0.160 C 
ENDBRANCH   18   20
ENDBRANCH    3   13
TORSDOF 4
ENDMDL
