MODEL 1
REMARK VINA RESULT:    -7.292      0.000      0.000
REMARK ITER + INTRA:          -10.309
REMARK INTER:                  -9.632
REMARK INTRA:                  -0.677
REMARK UNBOUND:                -0.886
REMARK Flexibility Score: inf
REMARK Active torsions [ 5 ] -> [ 5 ]
ROOT
ATOM      1  C1  LIG L   1      42.432  35.331  80.163  1.00  0.00     0.042 A 
ATOM      2  C2  LIG L   1      42.230  35.501  81.538  1.00  0.00     0.025 A 
ATOM      3  C3  LIG L   1      42.074  36.778  82.110  1.00  0.00     0.028 A 
ATOM      4  C4  LIG L   1      42.113  37.950  81.346  1.00  0.00     0.066 A 
ATOM      5  C5  LIG L   1      42.309  37.751  79.963  1.00  0.00     0.146 A 
ATOM      6  F1  LIG L   1      42.330  38.800  79.124  1.00  0.00    -0.203 F 
ATOM      7  C6  LIG L   1      42.467  36.485  79.384  1.00  0.00     0.063 A 
ENDROOT
BRANCH    1    8
ATOM      8  N1  LIG L   1      42.583  34.034  79.606  1.00  0.00    -0.234 N 
ATOM      9  C7  LIG L   1      43.311  31.860  79.254  1.00  0.00     0.213 C 
ATOM     10  C8  LIG L   1      43.668  33.162  79.937  1.00  0.00     0.163 C 
ATOM     11  O1  LIG L   1      42.269  32.194  78.333  1.00  0.00    -0.444 O 
ATOM     12  C9  LIG L   1      41.807  33.453  78.611  1.00  0.00     0.408 C 
ATOM     13  O2  LIG L   1      40.856  33.929  78.015  1.00  0.00    -0.226 OA
BRANCH    9   14
ATOM     14 C10  LIG L   1      44.492  31.188  78.545  1.00  0.00     0.150 C 
BRANCH   14   15
ATOM     15  N2  LIG L   1      44.898  29.926  79.149  1.00  0.00    -0.312 N 
ATOM     16 C11  LIG L   1      45.993  28.499  80.766  1.00  0.00     0.109 C 
ATOM     17 C12  LIG L   1      45.755  29.885  80.228  1.00  0.00     0.210 C 
ATOM     18  O3  LIG L   1      46.315  30.869  80.696  1.00  0.00    -0.276 OA
ATOM     19  H1  LIG L   1      44.551  29.083  78.778  1.00  0.00     0.149 HD
ENDBRANCH   14   15
ENDBRANCH    9   14
ENDBRANCH    1    8
BRANCH    4   20
ATOM     20  N3  LIG L   1      41.945  39.222  81.901  1.00  0.00    -0.325 N 
ATOM     21 C13  LIG L   1      42.363  39.382  83.321  1.00  0.00     0.124 C 
ATOM     22 C14  LIG L   1      40.884  40.149  81.473  1.00  0.00     0.124 C 
ATOM     23 C15  LIG L   1      41.707  40.598  84.025  1.00  0.00     0.124 C 
ATOM     24 C16  LIG L   1      39.745  40.220  82.511  1.00  0.00     0.124 C 
ATOM     25  N4  LIG L   1      40.241  40.612  83.850  1.00  0.00    -0.327 N 
BRANCH   25   26
ATOM     26 C17  LIG L   1      39.412  41.331  84.699  1.00  0.00     0.030 A 
ATOM     27 C18  LIG L   1      39.819  41.656  86.008  1.00  0.00     0.026 A 
ATOM     28 C19  LIG L   1      38.145  41.795  84.302  1.00  0.00     0.026 A 
ATOM     29 C20  LIG L   1      39.006  42.390  86.877  1.00  0.00     0.040 A 
ATOM     30 C21  LIG L   1      37.323  42.528  85.166  1.00  0.00     0.040 A 
ATOM     31 C22  LIG L   1      37.762  42.819  86.447  1.00  0.00     0.124 A 
ATOM     32  F2  LIG L   1      36.978  43.521  87.275  1.00  0.00    -0.205 F 
ENDBRANCH   25   26
ENDBRANCH    4   20
TORSDOF 5
ENDMDL
MODEL 2
REMARK VINA RESULT:    -6.973      1.243      1.864
REMARK ITER + INTRA:           -9.897
REMARK INTER:                  -9.135
REMARK INTRA:                  -0.762
REMARK UNBOUND:                -0.886
REMARK Flexibility Score: inf
REMARK Active torsions [ 5 ] -> [ 5 ]
ROOT
ATOM      1  C1  LIG L   1      42.493  35.490  80.235  1.00  0.00     0.042 A 
ATOM      2  C2  LIG L   1      42.220  35.692  81.594  1.00  0.00     0.025 A 
ATOM      3  C3  LIG L   1      42.003  36.979  82.121  1.00  0.00     0.028 A 
ATOM      4  C4  LIG L   1      42.050  38.130  81.326  1.00  0.00     0.066 A 
ATOM      5  C5  LIG L   1      42.319  37.900  79.960  1.00  0.00     0.146 A 
ATOM      6  F1  LIG L   1      42.355  38.926  79.094  1.00  0.00    -0.203 F 
ATOM      7  C6  LIG L   1      42.537  36.623  79.427  1.00  0.00     0.063 A 
ENDROOT
BRANCH    1    8
ATOM      8  N1  LIG L   1      42.703  34.183  79.723  1.00  0.00    -0.234 N 
ATOM      9  C7  LIG L   1      43.536  32.036  79.442  1.00  0.00     0.213 C 
ATOM     10  C8  LIG L   1      43.833  33.377  80.076  1.00  0.00     0.163 C 
ATOM     11  O1  LIG L   1      42.472  32.285  78.519  1.00  0.00    -0.444 O 
ATOM     12  C9  LIG L   1      41.951  33.529  78.756  1.00  0.00     0.408 C 
ATOM     13  O2  LIG L   1      40.973  33.936  78.152  1.00  0.00    -0.226 OA
BRANCH    9   14
ATOM     14 C10  LIG L   1      44.744  31.397  78.747  1.00  0.00     0.150 C 
BRANCH   14   15
ATOM     15  N2  LIG L   1      45.527  32.334  77.954  1.00  0.00    -0.312 N 
ATOM     16 C11  LIG L   1      46.952  33.035  76.130  1.00  0.00     0.109 C 
ATOM     17 C12  LIG L   1      46.278  31.915  76.876  1.00  0.00     0.210 C 
ATOM     18  O3  LIG L   1      46.429  30.740  76.562  1.00  0.00    -0.276 OA
ATOM     19  H1  LIG L   1      45.521  33.289  78.193  1.00  0.00     0.149 HD
ENDBRANCH   14   15
ENDBRANCH    9   14
ENDBRANCH    1    8
BRANCH    4   20
ATOM     20  N3  LIG L   1      41.823  39.412  81.836  1.00  0.00    -0.325 N 
ATOM     21 C13  LIG L   1      42.322  39.671  83.215  1.00  0.00     0.124 C 
ATOM     22 C14  LIG L   1      40.669  40.238  81.444  1.00  0.00     0.124 C 
ATOM     23 C15  LIG L   1      41.624  40.868  83.910  1.00  0.00     0.124 C 
ATOM     24 C16  LIG L   1      39.599  40.274  82.556  1.00  0.00     0.124 C 
ATOM     25  N4  LIG L   1      40.152  40.767  83.838  1.00  0.00    -0.327 N 
BRANCH   25   26
ATOM     26 C17  LIG L   1      39.329  41.463  84.712  1.00  0.00     0.030 A 
ATOM     27 C18  LIG L   1      38.042  41.879  84.320  1.00  0.00     0.026 A 
ATOM     28 C19  LIG L   1      39.714  41.769  86.029  1.00  0.00     0.026 A 
ATOM     29 C20  LIG L   1      37.190  42.571  85.187  1.00  0.00     0.040 A 
ATOM     30 C21  LIG L   1      38.870  42.464  86.903  1.00  0.00     0.040 A 
ATOM     31 C22  LIG L   1      37.614  42.859  86.473  1.00  0.00     0.124 A 
ATOM     32  F2  LIG L   1      36.804  43.524  87.307  1.00  0.00    -0.205 F 
ENDBRANCH   25   26
ENDBRANCH    4   20
TORSDOF 5
ENDMDL
MODEL 3
REMARK VINA RESULT:    -6.949      4.917     11.302
REMARK ITER + INTRA:           -9.866
REMARK INTER:                  -9.218
REMARK INTRA:                  -0.648
REMARK UNBOUND:                -0.886
REMARK Flexibility Score: inf
REMARK Active torsions [ 5 ] -> [ 5 ]
ROOT
ATOM      1  C1  LIG L   1      39.352  41.027  83.633  1.00  0.00     0.042 A 
ATOM      2  C2  LIG L   1      39.542  39.683  83.979  1.00  0.00     0.025 A 
ATOM      3  C3  LIG L   1      40.451  38.862  83.287  1.00  0.00     0.028 A 
ATOM      4  C4  LIG L   1      41.217  39.333  82.214  1.00  0.00     0.066 A 
ATOM      5  C5  LIG L   1      41.014  40.691  81.889  1.00  0.00     0.146 A 
ATOM      6  F1  LIG L   1      41.717  41.264  80.899  1.00  0.00    -0.203 F 
ATOM      7  C6  LIG L   1      40.110  41.516  82.572  1.00  0.00     0.063 A 
ENDROOT
BRANCH    1    8
ATOM      8  N1  LIG L   1      38.433  41.838  84.348  1.00  0.00    -0.234 N 
ATOM      9  C7  LIG L   1      36.461  42.656  85.255  1.00  0.00     0.213 C 
ATOM     10  C8  LIG L   1      37.014  41.749  84.178  1.00  0.00     0.163 C 
ATOM     11  O1  LIG L   1      37.577  43.432  85.701  1.00  0.00    -0.444 O 
ATOM     12  C9  LIG L   1      38.732  42.884  85.212  1.00  0.00     0.408 C 
ATOM     13  O2  LIG L   1      39.827  43.319  85.527  1.00  0.00    -0.226 OA
BRANCH    9   14
ATOM     14 C10  LIG L   1      35.310  43.551  84.780  1.00  0.00     0.150 C 
BRANCH   14   15
ATOM     15  N2  LIG L   1      34.185  42.812  84.222  1.00  0.00    -0.312 N 
ATOM     16 C11  LIG L   1      32.036  41.703  84.249  1.00  0.00     0.109 C 
ATOM     17 C12  LIG L   1      33.145  42.374  85.014  1.00  0.00     0.210 C 
ATOM     18  O3  LIG L   1      33.124  42.476  86.235  1.00  0.00    -0.276 OA
ATOM     19  H1  LIG L   1      34.168  42.621  83.257  1.00  0.00     0.149 HD
ENDBRANCH   14   15
ENDBRANCH    9   14
ENDBRANCH    1    8
BRANCH    4   20
ATOM     20  N3  LIG L   1      42.133  38.531  81.527  1.00  0.00    -0.325 N 
ATOM     21 C13  LIG L   1      41.900  38.365  80.067  1.00  0.00     0.124 C 
ATOM     22 C14  LIG L   1      42.844  37.406  82.160  1.00  0.00     0.124 C 
ATOM     23 C15  LIG L   1      42.588  37.110  79.469  1.00  0.00     0.124 C 
ATOM     24 C16  LIG L   1      42.257  36.049  81.717  1.00  0.00     0.124 C 
ATOM     25  N4  LIG L   1      42.282  35.891  80.244  1.00  0.00    -0.327 N 
BRANCH   25   26
ATOM     26 C17  LIG L   1      42.428  34.623  79.698  1.00  0.00     0.030 A 
ATOM     27 C18  LIG L   1      42.771  33.521  80.505  1.00  0.00     0.026 A 
ATOM     28 C19  LIG L   1      42.218  34.362  78.333  1.00  0.00     0.026 A 
ATOM     29 C20  LIG L   1      42.911  32.232  79.979  1.00  0.00     0.040 A 
ATOM     30 C21  LIG L   1      42.358  33.076  77.797  1.00  0.00     0.040 A 
ATOM     31 C22  LIG L   1      42.704  32.023  78.626  1.00  0.00     0.124 A 
ATOM     32  F2  LIG L   1      42.838  30.792  78.116  1.00  0.00    -0.205 F 
ENDBRANCH   25   26
ENDBRANCH    4   20
TORSDOF 5
ENDMDL
MODEL 4
REMARK VINA RESULT:    -6.922      2.149      2.963
REMARK ITER + INTRA:           -9.831
REMARK INTER:                  -8.948
REMARK INTRA:                  -0.883
REMARK UNBOUND:                -0.886
REMARK Flexibility Score: inf
REMARK Active torsions [ 5 ] -> [ 5 ]
ROOT
ATOM      1  C1  LIG L   1      43.817  33.858  79.554  1.00  0.00     0.042 A 
ATOM      2  C2  LIG L   1      44.116  34.903  78.672  1.00  0.00     0.025 A 
ATOM      3  C3  LIG L   1      43.696  36.223  78.920  1.00  0.00     0.028 A 
ATOM      4  C4  LIG L   1      42.956  36.572  80.056  1.00  0.00     0.066 A 
ATOM      5  C5  LIG L   1      42.675  35.504  80.933  1.00  0.00     0.146 A 
ATOM      6  F1  LIG L   1      42.000  35.723  82.074  1.00  0.00    -0.203 F 
ATOM      7  C6  LIG L   1      43.087  34.186  80.694  1.00  0.00     0.063 A 
ENDROOT
BRANCH    1    8
ATOM      8  N1  LIG L   1      44.254  32.534  79.287  1.00  0.00    -0.234 N 
ATOM      9  C7  LIG L   1      45.510  30.584  79.307  1.00  0.00     0.213 C 
ATOM     10  C8  LIG L   1      45.570  32.067  79.600  1.00  0.00     0.163 C 
ATOM     11  O1  LIG L   1      44.314  30.401  78.544  1.00  0.00    -0.444 O 
ATOM     12  C9  LIG L   1      43.557  31.540  78.611  1.00  0.00     0.408 C 
ATOM     13  O2  LIG L   1      42.447  31.599  78.110  1.00  0.00    -0.226 OA
BRANCH    9   14
ATOM     14 C10  LIG L   1      46.738  30.049  78.562  1.00  0.00     0.150 C 
BRANCH   14   15
ATOM     15  N2  LIG L   1      46.415  29.100  77.505  1.00  0.00    -0.312 N 
ATOM     16 C11  LIG L   1      46.519  28.142  75.287  1.00  0.00     0.109 C 
ATOM     17 C12  LIG L   1      46.888  29.263  76.220  1.00  0.00     0.210 C 
ATOM     18  O3  LIG L   1      47.517  30.244  75.841  1.00  0.00    -0.276 OA
ATOM     19  H1  LIG L   1      45.846  28.324  77.713  1.00  0.00     0.149 HD
ENDBRANCH   14   15
ENDBRANCH    9   14
ENDBRANCH    1    8
BRANCH    4   20
ATOM     20  N3  LIG L   1      42.546  37.882  80.319  1.00  0.00    -0.325 N 
ATOM     21 C13  LIG L   1      43.293  38.606  81.384  1.00  0.00     0.124 C 
ATOM     22 C14  LIG L   1      41.158  38.339  80.134  1.00  0.00     0.124 C 
ATOM     23 C15  LIG L   1      42.510  39.804  81.983  1.00  0.00     0.124 C 
ATOM     24 C16  LIG L   1      40.431  38.493  81.486  1.00  0.00     0.124 C 
ATOM     25  N4  LIG L   1      41.145  39.420  82.394  1.00  0.00    -0.327 N 
BRANCH   25   26
ATOM     26 C17  LIG L   1      40.419  40.174  83.306  1.00  0.00     0.030 A 
ATOM     27 C18  LIG L   1      39.065  40.485  83.074  1.00  0.00     0.026 A 
ATOM     28 C19  LIG L   1      40.975  40.643  84.509  1.00  0.00     0.026 A 
ATOM     29 C20  LIG L   1      38.309  41.232  83.985  1.00  0.00     0.040 A 
ATOM     30 C21  LIG L   1      40.227  41.394  85.425  1.00  0.00     0.040 A 
ATOM     31 C22  LIG L   1      38.901  41.682  85.153  1.00  0.00     0.124 A 
ATOM     32  F2  LIG L   1      38.183  42.399  86.027  1.00  0.00    -0.205 F 
ENDBRANCH   25   26
ENDBRANCH    4   20
TORSDOF 5
ENDMDL
MODEL 5
REMARK VINA RESULT:    -6.906      1.646      2.181
REMARK ITER + INTRA:           -9.810
REMARK INTER:                  -8.992
REMARK INTRA:                  -0.818
REMARK UNBOUND:                -0.886
REMARK Flexibility Score: inf
REMARK Active torsions [ 5 ] -> [ 5 ]
ROOT
ATOM      1  C1  LIG L   1      42.794  36.423  79.640  1.00  0.00     0.042 A 
ATOM      2  C2  LIG L   1      43.131  37.641  79.036  1.00  0.00     0.025 A 
ATOM      3  C3  LIG L   1      42.714  38.873  79.574  1.00  0.00     0.028 A 
ATOM      4  C4  LIG L   1      41.940  38.958  80.738  1.00  0.00     0.066 A 
ATOM      5  C5  LIG L   1      41.621  37.718  81.331  1.00  0.00     0.146 A 
ATOM      6  F1  LIG L   1      40.910  37.675  82.470  1.00  0.00    -0.203 F 
ATOM      7  C6  LIG L   1      42.030  36.487  80.802  1.00  0.00     0.063 A 
ENDROOT
BRANCH    1    8
ATOM      8  N1  LIG L   1      43.229  35.192  79.083  1.00  0.00    -0.234 N 
ATOM      9  C7  LIG L   1      43.222  33.141  78.000  1.00  0.00     0.213 C 
ATOM     10  C8  LIG L   1      42.329  34.153  78.684  1.00  0.00     0.163 C 
ATOM     11  O1  LIG L   1      44.555  33.508  78.366  1.00  0.00    -0.444 O 
ATOM     12  C9  LIG L   1      44.539  34.754  78.936  1.00  0.00     0.408 C 
ATOM     13  O2  LIG L   1      45.570  35.322  79.253  1.00  0.00    -0.226 OA
BRANCH    9   14
ATOM     14 C10  LIG L   1      42.916  31.687  78.380  1.00  0.00     0.150 C 
BRANCH   14   15
ATOM     15  N2  LIG L   1      44.090  30.927  78.783  1.00  0.00    -0.312 N 
ATOM     16 C11  LIG L   1      45.340  29.306  80.072  1.00  0.00     0.109 C 
ATOM     17 C12  LIG L   1      44.057  30.064  79.858  1.00  0.00     0.210 C 
ATOM     18  O3  LIG L   1      43.095  29.941  80.608  1.00  0.00    -0.276 OA
ATOM     19  H1  LIG L   1      44.928  31.032  78.277  1.00  0.00     0.149 HD
ENDBRANCH   14   15
ENDBRANCH    9   14
ENDBRANCH    1    8
BRANCH    4   20
ATOM     20  N3  LIG L   1      41.532  40.176  81.288  1.00  0.00    -0.325 N 
ATOM     21 C13  LIG L   1      42.222  40.600  82.537  1.00  0.00     0.124 C 
ATOM     22 C14  LIG L   1      40.164  40.703  81.142  1.00  0.00     0.124 C 
ATOM     23 C15  LIG L   1      41.420  41.638  83.364  1.00  0.00     0.124 C 
ATOM     24 C16  LIG L   1      39.357  40.546  82.448  1.00  0.00     0.124 C 
ATOM     25  N4  LIG L   1      40.027  41.205  83.593  1.00  0.00    -0.327 N 
BRANCH   25   26
ATOM     26 C17  LIG L   1      39.256  41.735  84.618  1.00  0.00     0.030 A 
ATOM     27 C18  LIG L   1      37.911  42.093  84.404  1.00  0.00     0.026 A 
ATOM     28 C19  LIG L   1      39.757  41.921  85.919  1.00  0.00     0.026 A 
ATOM     29 C20  LIG L   1      37.111  42.617  85.425  1.00  0.00     0.040 A 
ATOM     30 C21  LIG L   1      38.965  42.448  86.946  1.00  0.00     0.040 A 
ATOM     31 C22  LIG L   1      37.649  42.792  86.689  1.00  0.00     0.124 A 
ATOM     32  F2  LIG L   1      36.889  43.296  87.670  1.00  0.00    -0.205 F 
ENDBRANCH   25   26
ENDBRANCH    4   20
TORSDOF 5
ENDMDL
MODEL 6
REMARK VINA RESULT:    -6.878      2.151      2.824
REMARK ITER + INTRA:           -9.774
REMARK INTER:                  -8.899
REMARK INTRA:                  -0.875
REMARK UNBOUND:                -0.886
REMARK Flexibility Score: inf
REMARK Active torsions [ 5 ] -> [ 5 ]
ROOT
ATOM      1  C1  LIG L   1      43.781  33.808  79.542  1.00  0.00     0.042 A 
ATOM      2  C2  LIG L   1      44.107  34.864  78.682  1.00  0.00     0.025 A 
ATOM      3  C3  LIG L   1      43.706  36.186  78.950  1.00  0.00     0.028 A 
ATOM      4  C4  LIG L   1      42.959  36.526  80.085  1.00  0.00     0.066 A 
ATOM      5  C5  LIG L   1      42.650  35.446  80.939  1.00  0.00     0.146 A 
ATOM      6  F1  LIG L   1      41.966  35.655  82.076  1.00  0.00    -0.203 F 
ATOM      7  C6  LIG L   1      43.044  34.127  80.680  1.00  0.00     0.063 A 
ENDROOT
BRANCH    1    8
ATOM      8  N1  LIG L   1      44.200  32.482  79.255  1.00  0.00    -0.234 N 
ATOM      9  C7  LIG L   1      45.413  30.506  79.269  1.00  0.00     0.213 C 
ATOM     10  C8  LIG L   1      45.494  31.978  79.603  1.00  0.00     0.163 C 
ATOM     11  O1  LIG L   1      44.243  30.369  78.458  1.00  0.00    -0.444 O 
ATOM     12  C9  LIG L   1      43.509  31.523  78.527  1.00  0.00     0.408 C 
ATOM     13  O2  LIG L   1      42.419  31.618  77.987  1.00  0.00    -0.226 OA
BRANCH    9   14
ATOM     14 C10  LIG L   1      46.657  29.963  78.555  1.00  0.00     0.150 C 
BRANCH   14   15
ATOM     15  N2  LIG L   1      46.417  29.575  77.172  1.00  0.00    -0.312 N 
ATOM     16 C11  LIG L   1      46.465  28.114  75.245  1.00  0.00     0.109 C 
ATOM     17 C12  LIG L   1      46.880  28.378  76.668  1.00  0.00     0.210 C 
ATOM     18  O3  LIG L   1      47.599  27.605  77.290  1.00  0.00    -0.276 OA
ATOM     19  H1  LIG L   1      45.913  30.181  76.583  1.00  0.00     0.149 HD
ENDBRANCH   14   15
ENDBRANCH    9   14
ENDBRANCH    1    8
BRANCH    4   20
ATOM     20  N3  LIG L   1      42.566  37.838  80.368  1.00  0.00    -0.325 N 
ATOM     21 C13  LIG L   1      43.294  38.520  81.472  1.00  0.00     0.124 C 
ATOM     22 C14  LIG L   1      41.194  38.327  80.151  1.00  0.00     0.124 C 
ATOM     23 C15  LIG L   1      42.517  39.719  82.076  1.00  0.00     0.124 C 
ATOM     24 C16  LIG L   1      40.429  38.464  81.485  1.00  0.00     0.124 C 
ATOM     25  N4  LIG L   1      41.132  39.353  82.436  1.00  0.00    -0.327 N 
BRANCH   25   26
ATOM     26 C17  LIG L   1      40.393  40.100  83.344  1.00  0.00     0.030 A 
ATOM     27 C18  LIG L   1      40.959  40.531  84.559  1.00  0.00     0.026 A 
ATOM     28 C19  LIG L   1      39.065  40.487  83.096  1.00  0.00     0.026 A 
ATOM     29 C20  LIG L   1      40.238  41.294  85.484  1.00  0.00     0.040 A 
ATOM     30 C21  LIG L   1      38.334  41.249  84.017  1.00  0.00     0.040 A 
ATOM     31 C22  LIG L   1      38.928  41.645  85.203  1.00  0.00     0.124 A 
ATOM     32  F2  LIG L   1      38.232  42.374  86.084  1.00  0.00    -0.205 F 
ENDBRANCH   25   26
ENDBRANCH    4   20
TORSDOF 5
ENDMDL
MODEL 7
REMARK VINA RESULT:    -6.860      1.994      2.625
REMARK ITER + INTRA:           -9.750
REMARK INTER:                  -8.933
REMARK INTRA:                  -0.818
REMARK UNBOUND:                -0.886
REMARK Flexibility Score: inf
REMARK Active torsions [ 5 ] -> [ 5 ]
ROOT
ATOM      1  C1  LIG L   1      43.547  33.991  79.506  1.00  0.00     0.042 A 
ATOM      2  C2  LIG L   1      42.848  34.441  80.634  1.00  0.00     0.025 A 
ATOM      3  C3  LIG L   1      42.513  35.798  80.803  1.00  0.00     0.028 A 
ATOM      4  C4  LIG L   1      42.855  36.776  79.862  1.00  0.00     0.066 A 
ATOM      5  C5  LIG L   1      43.552  36.297  78.733  1.00  0.00     0.146 A 
ATOM      6  F1  LIG L   1      43.904  37.138  77.746  1.00  0.00    -0.203 F 
ATOM      7  C6  LIG L   1      43.891  34.949  78.556  1.00  0.00     0.063 A 
ENDROOT
BRANCH    1    8
ATOM      8  N1  LIG L   1      43.872  32.618  79.353  1.00  0.00    -0.234 N 
ATOM      9  C7  LIG L   1      44.918  30.563  79.599  1.00  0.00     0.213 C 
ATOM     10  C8  LIG L   1      45.100  32.048  79.818  1.00  0.00     0.163 C 
ATOM     11  O1  LIG L   1      43.786  30.448  78.733  1.00  0.00    -0.444 O 
ATOM     12  C9  LIG L   1      43.145  31.656  78.665  1.00  0.00     0.408 C 
ATOM     13  O2  LIG L   1      42.097  31.788  78.054  1.00  0.00    -0.226 OA
BRANCH    9   14
ATOM     14 C10  LIG L   1      46.150  29.868  79.008  1.00  0.00     0.150 C 
BRANCH   14   15
ATOM     15  N2  LIG L   1      46.061  29.637  77.573  1.00  0.00    -0.312 N 
ATOM     16 C11  LIG L   1      46.513  28.509  75.482  1.00  0.00     0.109 C 
ATOM     17 C12  LIG L   1      46.799  28.651  76.953  1.00  0.00     0.210 C 
ATOM     18  O3  LIG L   1      47.644  27.969  77.521  1.00  0.00    -0.276 OA
ATOM     19  H1  LIG L   1      45.460  30.199  77.032  1.00  0.00     0.149 HD
ENDBRANCH   14   15
ENDBRANCH    9   14
ENDBRANCH    1    8
BRANCH    4   20
ATOM     20  N3  LIG L   1      42.515  38.124  80.014  1.00  0.00    -0.325 N 
ATOM     21 C13  LIG L   1      43.205  38.859  81.108  1.00  0.00     0.124 C 
ATOM     22 C14  LIG L   1      41.187  38.658  79.667  1.00  0.00     0.124 C 
ATOM     23 C15  LIG L   1      42.455  40.138  81.562  1.00  0.00     0.124 C 
ATOM     24 C16  LIG L   1      40.346  38.940  80.929  1.00  0.00     0.124 C 
ATOM     25  N4  LIG L   1      41.033  39.870  81.854  1.00  0.00    -0.327 N 
BRANCH   25   26
ATOM     26 C17  LIG L   1      40.278  40.722  82.648  1.00  0.00     0.030 A 
ATOM     27 C18  LIG L   1      39.227  40.229  83.445  1.00  0.00     0.026 A 
ATOM     28 C19  LIG L   1      40.529  42.104  82.722  1.00  0.00     0.026 A 
ATOM     29 C20  LIG L   1      38.460  41.067  84.262  1.00  0.00     0.040 A 
ATOM     30 C21  LIG L   1      39.765  42.950  83.534  1.00  0.00     0.040 A 
ATOM     31 C22  LIG L   1      38.736  42.424  84.297  1.00  0.00     0.124 A 
ATOM     32  F2  LIG L   1      38.005  43.231  85.076  1.00  0.00    -0.205 F 
ENDBRANCH   25   26
ENDBRANCH    4   20
TORSDOF 5
ENDMDL
MODEL 8
REMARK VINA RESULT:    -6.855      3.824     11.239
REMARK ITER + INTRA:           -9.745
REMARK INTER:                  -9.116
REMARK INTRA:                  -0.628
REMARK UNBOUND:                -0.886
REMARK Flexibility Score: inf
REMARK Active torsions [ 5 ] -> [ 5 ]
ROOT
ATOM      1  C1  LIG L   1      42.275  36.754  80.490  1.00  0.00     0.042 A 
ATOM      2  C2  LIG L   1      42.392  35.647  81.340  1.00  0.00     0.025 A 
ATOM      3  C3  LIG L   1      42.742  34.374  80.852  1.00  0.00     0.028 A 
ATOM      4  C4  LIG L   1      42.992  34.135  79.495  1.00  0.00     0.066 A 
ATOM      5  C5  LIG L   1      42.876  35.267  78.661  1.00  0.00     0.146 A 
ATOM      6  F1  LIG L   1      43.125  35.168  77.345  1.00  0.00    -0.203 F 
ATOM      7  C6  LIG L   1      42.527  36.538  79.137  1.00  0.00     0.063 A 
ENDROOT
BRANCH    1    8
ATOM      8  N1  LIG L   1      41.925  38.030  81.003  1.00  0.00    -0.234 N 
ATOM      9  C7  LIG L   1      41.990  40.012  82.206  1.00  0.00     0.213 C 
ATOM     10  C8  LIG L   1      42.550  38.609  82.154  1.00  0.00     0.163 C 
ATOM     11  O1  LIG L   1      40.866  40.000  81.321  1.00  0.00    -0.444 O 
ATOM     12  C9  LIG L   1      40.894  38.855  80.571  1.00  0.00     0.408 C 
ATOM     13  O2  LIG L   1      40.085  38.655  79.681  1.00  0.00    -0.226 OA
BRANCH    9   14
ATOM     14 C10  LIG L   1      41.590  40.469  83.614  1.00  0.00     0.150 C 
BRANCH   14   15
ATOM     15  N2  LIG L   1      40.293  41.128  83.671  1.00  0.00    -0.312 N 
ATOM     16 C11  LIG L   1      37.907  41.287  84.034  1.00  0.00     0.109 C 
ATOM     17 C12  LIG L   1      39.136  40.424  83.934  1.00  0.00     0.210 C 
ATOM     18  O3  LIG L   1      39.086  39.204  84.039  1.00  0.00    -0.276 OA
ATOM     19  H1  LIG L   1      40.240  42.099  83.518  1.00  0.00     0.149 HD
ENDBRANCH   14   15
ENDBRANCH    9   14
ENDBRANCH    1    8
BRANCH    4   20
ATOM     20  N3  LIG L   1      43.353  32.878  79.002  1.00  0.00    -0.325 N 
ATOM     21 C13  LIG L   1      42.695  31.705  79.639  1.00  0.00     0.124 C 
ATOM     22 C14  LIG L   1      44.681  32.593  78.433  1.00  0.00     0.124 C 
ATOM     23 C15  LIG L   1      43.471  30.378  79.441  1.00  0.00     0.124 C 
ATOM     24 C16  LIG L   1      45.551  31.777  79.413  1.00  0.00     0.124 C 
ATOM     25  N4  LIG L   1      44.895  30.510  79.809  1.00  0.00    -0.327 N 
BRANCH   25   26
ATOM     26 C17  LIG L   1      45.677  29.404  80.109  1.00  0.00     0.030 A 
ATOM     27 C18  LIG L   1      46.604  28.897  79.178  1.00  0.00     0.026 A 
ATOM     28 C19  LIG L   1      45.612  28.749  81.352  1.00  0.00     0.026 A 
ATOM     29 C20  LIG L   1      47.412  27.791  79.463  1.00  0.00     0.040 A 
ATOM     30 C21  LIG L   1      46.414  27.640  81.645  1.00  0.00     0.040 A 
ATOM     31 C22  LIG L   1      47.307  27.171  80.697  1.00  0.00     0.124 A 
ATOM     32  F2  LIG L   1      48.076  26.110  80.975  1.00  0.00    -0.205 F 
ENDBRANCH   25   26
ENDBRANCH    4   20
TORSDOF 5
ENDMDL
MODEL 9
REMARK VINA RESULT:    -6.776      5.224     11.560
REMARK ITER + INTRA:           -9.642
REMARK INTER:                  -9.005
REMARK INTRA:                  -0.637
REMARK UNBOUND:                -0.886
REMARK Flexibility Score: inf
REMARK Active torsions [ 5 ] -> [ 5 ]
ROOT
ATOM      1  C1  LIG L   1      42.737  37.026  79.597  1.00  0.00     0.042 A 
ATOM      2  C2  LIG L   1      42.520  36.311  80.781  1.00  0.00     0.025 A 
ATOM      3  C3  LIG L   1      42.954  34.980  80.930  1.00  0.00     0.028 A 
ATOM      4  C4  LIG L   1      43.623  34.292  79.911  1.00  0.00     0.066 A 
ATOM      5  C5  LIG L   1      43.835  35.037  78.732  1.00  0.00     0.146 A 
ATOM      6  F1  LIG L   1      44.496  34.493  77.696  1.00  0.00    -0.203 F 
ATOM      7  C6  LIG L   1      43.406  36.361  78.573  1.00  0.00     0.063 A 
ENDROOT
BRANCH    1    8
ATOM      8  N1  LIG L   1      42.295  38.369  79.469  1.00  0.00    -0.234 N 
ATOM      9  C7  LIG L   1      42.220  40.617  78.904  1.00  0.00     0.213 C 
ATOM     10  C8  LIG L   1      43.156  39.441  79.069  1.00  0.00     0.163 C 
ATOM     11  O1  LIG L   1      41.003  40.221  79.542  1.00  0.00    -0.444 O 
ATOM     12  C9  LIG L   1      41.044  38.876  79.797  1.00  0.00     0.408 C 
ATOM     13  O2  LIG L   1      40.083  38.285  80.260  1.00  0.00    -0.226 OA
BRANCH    9   14
ATOM     14 C10  LIG L   1      42.761  41.927  79.490  1.00  0.00     0.150 C 
BRANCH   14   15
ATOM     15  N2  LIG L   1      44.211  42.038  79.438  1.00  0.00    -0.312 N 
ATOM     16 C11  LIG L   1      46.352  42.617  78.472  1.00  0.00     0.109 C 
ATOM     17 C12  LIG L   1      44.861  42.492  78.309  1.00  0.00     0.210 C 
ATOM     18  O3  LIG L   1      44.299  42.738  77.249  1.00  0.00    -0.276 OA
ATOM     19  H1  LIG L   1      44.742  41.784  80.228  1.00  0.00     0.149 HD
ENDBRANCH   14   15
ENDBRANCH    9   14
ENDBRANCH    1    8
BRANCH    4   20
ATOM     20  N3  LIG L   1      44.069  32.975  80.053  1.00  0.00    -0.325 N 
ATOM     21 C13  LIG L   1      45.542  32.786  80.162  1.00  0.00     0.124 C 
ATOM     22 C14  LIG L   1      43.349  31.820  79.491  1.00  0.00     0.124 C 
ATOM     23 C15  LIG L   1      46.009  31.351  79.805  1.00  0.00     0.124 C 
ATOM     24 C16  LIG L   1      44.057  31.273  78.233  1.00  0.00     0.124 C 
ATOM     25  N4  LIG L   1      45.463  30.899  78.509  1.00  0.00    -0.327 N 
BRANCH   25   26
ATOM     26 C17  LIG L   1      46.044  29.861  77.795  1.00  0.00     0.030 A 
ATOM     27 C18  LIG L   1      46.642  28.771  78.457  1.00  0.00     0.026 A 
ATOM     28 C19  LIG L   1      46.046  29.822  76.389  1.00  0.00     0.026 A 
ATOM     29 C20  LIG L   1      47.223  27.707  77.758  1.00  0.00     0.040 A 
ATOM     30 C21  LIG L   1      46.628  28.763  75.681  1.00  0.00     0.040 A 
ATOM     31 C22  LIG L   1      47.211  27.715  76.373  1.00  0.00     0.124 A 
ATOM     32  F2  LIG L   1      47.767  26.700  75.699  1.00  0.00    -0.205 F 
ENDBRANCH   25   26
ENDBRANCH    4   20
TORSDOF 5
ENDMDL
MODEL 10
REMARK VINA RESULT:    -6.775      3.851     11.569
REMARK ITER + INTRA:           -9.641
REMARK INTER:                  -9.479
REMARK INTRA:                  -0.162
REMARK UNBOUND:                -0.886
REMARK Flexibility Score: inf
REMARK Active torsions [ 5 ] -> [ 5 ]
ROOT
ATOM      1  C1  LIG L   1      42.250  36.333  80.454  1.00  0.00     0.042 A 
ATOM      2  C2  LIG L   1      42.679  35.287  81.280  1.00  0.00     0.025 A 
ATOM      3  C3  LIG L   1      42.870  33.984  80.784  1.00  0.00     0.028 A 
ATOM      4  C4  LIG L   1      42.643  33.653  79.443  1.00  0.00     0.066 A 
ATOM      5  C5  LIG L   1      42.220  34.725  78.630  1.00  0.00     0.146 A 
ATOM      6  F1  LIG L   1      42.003  34.536  77.318  1.00  0.00    -0.203 F 
ATOM      7  C6  LIG L   1      42.026  36.025  79.114  1.00  0.00     0.063 A 
ENDROOT
BRANCH    1    8
ATOM      8  N1  LIG L   1      42.068  37.641  80.974  1.00  0.00    -0.234 N 
ATOM      9  C7  LIG L   1      42.367  39.579  82.212  1.00  0.00     0.213 C 
ATOM     10  C8  LIG L   1      42.718  38.108  82.161  1.00  0.00     0.163 C 
ATOM     11  O1  LIG L   1      41.296  39.742  81.279  1.00  0.00    -0.444 O 
ATOM     12  C9  LIG L   1      41.191  38.613  80.511  1.00  0.00     0.408 C 
ATOM     13  O2  LIG L   1      40.403  38.545  79.583  1.00  0.00    -0.226 OA
BRANCH    9   14
ATOM     14 C10  LIG L   1      41.974  40.074  83.610  1.00  0.00     0.150 C 
BRANCH   14   15
ATOM     15  N2  LIG L   1      40.702  40.780  83.645  1.00  0.00    -0.312 N 
ATOM     16 C11  LIG L   1      38.313  41.021  83.942  1.00  0.00     0.109 C 
ATOM     17 C12  LIG L   1      39.512  40.115  83.856  1.00  0.00     0.210 C 
ATOM     18  O3  LIG L   1      39.414  38.896  83.929  1.00  0.00    -0.276 OA
ATOM     19  H1  LIG L   1      40.690  41.756  83.515  1.00  0.00     0.149 HD
ENDBRANCH   14   15
ENDBRANCH    9   14
ENDBRANCH    1    8
BRANCH    4   20
ATOM     20  N3  LIG L   1      42.843  32.365  78.937  1.00  0.00    -0.325 N 
ATOM     21 C13  LIG L   1      43.223  31.319  79.925  1.00  0.00     0.124 C 
ATOM     22 C14  LIG L   1      43.320  32.108  77.568  1.00  0.00     0.124 C 
ATOM     23 C15  LIG L   1      43.915  30.087  79.287  1.00  0.00     0.124 C 
ATOM     24 C16  LIG L   1      44.802  31.675  77.560  1.00  0.00     0.124 C 
ATOM     25  N4  LIG L   1      45.031  30.479  78.403  1.00  0.00    -0.327 N 
BRANCH   25   26
ATOM     26 C17  LIG L   1      46.036  29.585  78.057  1.00  0.00     0.030 A 
ATOM     27 C18  LIG L   1      46.754  28.884  79.044  1.00  0.00     0.026 A 
ATOM     28 C19  LIG L   1      46.374  29.312  76.720  1.00  0.00     0.026 A 
ATOM     29 C20  LIG L   1      47.762  27.970  78.720  1.00  0.00     0.040 A 
ATOM     30 C21  LIG L   1      47.383  28.401  76.385  1.00  0.00     0.040 A 
ATOM     31 C22  LIG L   1      48.068  27.738  77.389  1.00  0.00     0.124 A 
ATOM     32  F2  LIG L   1      49.033  26.865  77.072  1.00  0.00    -0.205 F 
ENDBRANCH   25   26
ENDBRANCH    4   20
TORSDOF 5
ENDMDL
MODEL 11
REMARK VINA RESULT:    -6.661      3.948     11.526
REMARK ITER + INTRA:           -9.493
REMARK INTER:                  -8.562
REMARK INTRA:                  -0.931
REMARK UNBOUND:                -0.886
REMARK Flexibility Score: inf
REMARK Active torsions [ 5 ] -> [ 5 ]
ROOT
ATOM      1  C1  LIG L   1      42.484  37.206  80.286  1.00  0.00     0.042 A 
ATOM      2  C2  LIG L   1      42.281  36.201  81.240  1.00  0.00     0.025 A 
ATOM      3  C3  LIG L   1      42.791  34.901  81.064  1.00  0.00     0.028 A 
ATOM      4  C4  LIG L   1      43.526  34.532  79.930  1.00  0.00     0.066 A 
ATOM      5  C5  LIG L   1      43.723  35.564  78.989  1.00  0.00     0.146 A 
ATOM      6  F1  LIG L   1      44.442  35.339  77.876  1.00  0.00    -0.203 F 
ATOM      7  C6  LIG L   1      43.219  36.861  79.155  1.00  0.00     0.063 A 
ENDROOT
BRANCH    1    8
ATOM      8  N1  LIG L   1      41.965  38.512  80.486  1.00  0.00    -0.234 N 
ATOM      9  C7  LIG L   1      41.831  40.779  80.958  1.00  0.00     0.213 C 
ATOM     10  C8  LIG L   1      42.699  39.554  81.139  1.00  0.00     0.163 C 
ATOM     11  O1  LIG L   1      40.558  40.278  80.541  1.00  0.00    -0.444 O 
ATOM     12  C9  LIG L   1      40.682  38.959  80.198  1.00  0.00     0.408 C 
ATOM     13  O2  LIG L   1      39.748  38.332  79.728  1.00  0.00    -0.226 OA
BRANCH    9   14
ATOM     14 C10  LIG L   1      41.709  41.644  82.218  1.00  0.00     0.150 C 
BRANCH   14   15
ATOM     15  N2  LIG L   1      40.352  41.736  82.737  1.00  0.00    -0.312 N 
ATOM     16 C11  LIG L   1      38.521  41.242  84.238  1.00  0.00     0.109 C 
ATOM     17 C12  LIG L   1      39.926  40.949  83.787  1.00  0.00     0.210 C 
ATOM     18  O3  LIG L   1      40.599  40.059  84.292  1.00  0.00    -0.276 OA
ATOM     19  H1  LIG L   1      39.724  42.375  82.330  1.00  0.00     0.149 HD
ENDBRANCH   14   15
ENDBRANCH    9   14
ENDBRANCH    1    8
BRANCH    4   20
ATOM     20  N3  LIG L   1      44.048  33.248  79.751  1.00  0.00    -0.325 N 
ATOM     21 C13  LIG L   1      45.511  33.093  79.975  1.00  0.00     0.124 C 
ATOM     22 C14  LIG L   1      43.472  32.274  78.808  1.00  0.00     0.124 C 
ATOM     23 C15  LIG L   1      46.113  31.839  79.290  1.00  0.00     0.124 C 
ATOM     24 C16  LIG L   1      44.341  32.137  77.540  1.00  0.00     0.124 C 
ATOM     25  N4  LIG L   1      45.735  31.755  77.865  1.00  0.00    -0.327 N 
BRANCH   25   26
ATOM     26 C17  LIG L   1      46.457  30.987  76.962  1.00  0.00     0.030 A 
ATOM     27 C18  LIG L   1      47.613  31.496  76.339  1.00  0.00     0.026 A 
ATOM     28 C19  LIG L   1      46.100  29.665  76.642  1.00  0.00     0.026 A 
ATOM     29 C20  LIG L   1      48.364  30.736  75.436  1.00  0.00     0.040 A 
ATOM     30 C21  LIG L   1      46.844  28.898  75.737  1.00  0.00     0.040 A 
ATOM     31 C22  LIG L   1      47.970  29.442  75.142  1.00  0.00     0.124 A 
ATOM     32  F2  LIG L   1      48.684  28.710  74.277  1.00  0.00    -0.205 F 
ENDBRANCH   25   26
ENDBRANCH    4   20
TORSDOF 5
ENDMDL
MODEL 12
REMARK VINA RESULT:    -6.635      3.886     11.520
REMARK ITER + INTRA:           -9.460
REMARK INTER:                  -8.702
REMARK INTRA:                  -0.758
REMARK UNBOUND:                -0.886
REMARK Flexibility Score: inf
REMARK Active torsions [ 5 ] -> [ 5 ]
ROOT
ATOM      1  C1  LIG L   1      42.316  36.848  80.308  1.00  0.00     0.042 A 
ATOM      2  C2  LIG L   1      42.303  35.507  80.714  1.00  0.00     0.025 A 
ATOM      3  C3  LIG L   1      42.993  34.512  79.997  1.00  0.00     0.028 A 
ATOM      4  C4  LIG L   1      43.729  34.796  78.841  1.00  0.00     0.066 A 
ATOM      5  C5  LIG L   1      43.732  36.154  78.457  1.00  0.00     0.146 A 
ATOM      6  F1  LIG L   1      44.432  36.553  77.382  1.00  0.00    -0.203 F 
ATOM      7  C6  LIG L   1      43.048  37.152  79.163  1.00  0.00     0.063 A 
ENDROOT
BRANCH    1    8
ATOM      8  N1  LIG L   1      41.617  37.837  81.048  1.00  0.00    -0.234 N 
ATOM      9  C7  LIG L   1      41.009  39.296  82.745  1.00  0.00     0.213 C 
ATOM     10  C8  LIG L   1      41.818  38.054  82.449  1.00  0.00     0.163 C 
ATOM     11  O1  LIG L   1      40.162  39.473  81.606  1.00  0.00    -0.444 O 
ATOM     12  C9  LIG L   1      40.589  38.654  80.595  1.00  0.00     0.408 C 
ATOM     13  O2  LIG L   1      40.077  38.687  79.488  1.00  0.00    -0.226 OA
BRANCH    9   14
ATOM     14 C10  LIG L   1      40.194  39.212  84.042  1.00  0.00     0.150 C 
BRANCH   14   15
ATOM     15  N2  LIG L   1      38.903  39.880  83.967  1.00  0.00    -0.312 N 
ATOM     16 C11  LIG L   1      37.338  41.705  84.233  1.00  0.00     0.109 C 
ATOM     17 C12  LIG L   1      38.715  41.148  84.476  1.00  0.00     0.210 C 
ATOM     18  O3  LIG L   1      39.565  41.766  85.105  1.00  0.00    -0.276 OA
ATOM     19  H1  LIG L   1      38.145  39.415  83.544  1.00  0.00     0.149 HD
ENDBRANCH   14   15
ENDBRANCH    9   14
ENDBRANCH    1    8
BRANCH    4   20
ATOM     20  N3  LIG L   1      44.429  33.818  78.129  1.00  0.00    -0.325 N 
ATOM     21 C13  LIG L   1      43.651  32.616  77.719  1.00  0.00     0.124 C 
ATOM     22 C14  LIG L   1      45.870  33.574  78.308  1.00  0.00     0.124 C 
ATOM     23 C15  LIG L   1      44.536  31.381  77.412  1.00  0.00     0.124 C 
ATOM     24 C16  LIG L   1      46.127  32.290  79.124  1.00  0.00     0.124 C 
ATOM     25  N4  LIG L   1      45.494  31.104  78.501  1.00  0.00    -0.327 N 
BRANCH   25   26
ATOM     26 C17  LIG L   1      46.086  29.858  78.653  1.00  0.00     0.030 A 
ATOM     27 C18  LIG L   1      46.566  29.143  77.540  1.00  0.00     0.026 A 
ATOM     28 C19  LIG L   1      46.263  29.256  79.912  1.00  0.00     0.026 A 
ATOM     29 C20  LIG L   1      47.177  27.891  77.670  1.00  0.00     0.040 A 
ATOM     30 C21  LIG L   1      46.870  28.003  80.051  1.00  0.00     0.040 A 
ATOM     31 C22  LIG L   1      47.322  27.331  78.928  1.00  0.00     0.124 A 
ATOM     32  F2  LIG L   1      47.904  26.132  79.059  1.00  0.00    -0.205 F 
ENDBRANCH   25   26
ENDBRANCH    4   20
TORSDOF 5
ENDMDL
MODEL 13
REMARK VINA RESULT:    -6.601      4.120     11.502
REMARK ITER + INTRA:           -9.416
REMARK INTER:                  -8.742
REMARK INTRA:                  -0.674
REMARK UNBOUND:                -0.886
REMARK Flexibility Score: inf
REMARK Active torsions [ 5 ] -> [ 5 ]
ROOT
ATOM      1  C1  LIG L   1      42.537  36.937  81.149  1.00  0.00     0.042 A 
ATOM      2  C2  LIG L   1      42.440  35.565  81.411  1.00  0.00     0.025 A 
ATOM      3  C3  LIG L   1      42.766  34.602  80.438  1.00  0.00     0.028 A 
ATOM      4  C4  LIG L   1      43.203  34.952  79.155  1.00  0.00     0.066 A 
ATOM      5  C5  LIG L   1      43.300  36.340  78.919  1.00  0.00     0.146 A 
ATOM      6  F1  LIG L   1      43.740  36.797  77.735  1.00  0.00    -0.203 F 
ATOM      7  C6  LIG L   1      42.977  37.306  79.880  1.00  0.00     0.063 A 
ENDROOT
BRANCH    1    8
ATOM      8  N1  LIG L   1      42.208  37.892  82.147  1.00  0.00    -0.234 N 
ATOM      9  C7  LIG L   1      42.370  39.315  83.971  1.00  0.00     0.213 C 
ATOM     10  C8  LIG L   1      43.005  38.109  83.316  1.00  0.00     0.163 C 
ATOM     11  O1  LIG L   1      41.099  39.462  83.333  1.00  0.00    -0.444 O 
ATOM     12  C9  LIG L   1      41.058  38.668  82.219  1.00  0.00     0.408 C 
ATOM     13  O2  LIG L   1      40.105  38.686  81.457  1.00  0.00    -0.226 OA
BRANCH    9   14
ATOM     14 C10  LIG L   1      42.224  39.189  85.492  1.00  0.00     0.150 C 
BRANCH   14   15
ATOM     15  N2  LIG L   1      41.251  40.108  86.066  1.00  0.00    -0.312 N 
ATOM     16 C11  LIG L   1      40.499  42.017  87.345  1.00  0.00     0.109 C 
ATOM     17 C12  LIG L   1      41.631  41.121  86.921  1.00  0.00     0.210 C 
ATOM     18  O3  LIG L   1      42.772  41.270  87.341  1.00  0.00    -0.276 OA
ATOM     19  H1  LIG L   1      40.299  40.003  85.837  1.00  0.00     0.149 HD
ENDBRANCH   14   15
ENDBRANCH    9   14
ENDBRANCH    1    8
BRANCH    4   20
ATOM     20  N3  LIG L   1      43.542  34.004  78.186  1.00  0.00    -0.325 N 
ATOM     21 C13  LIG L   1      42.828  32.700  78.260  1.00  0.00     0.124 C 
ATOM     22 C14  LIG L   1      44.879  33.930  77.571  1.00  0.00     0.124 C 
ATOM     23 C15  LIG L   1      43.569  31.547  77.535  1.00  0.00     0.124 C 
ATOM     24 C16  LIG L   1      45.691  32.743  78.132  1.00  0.00     0.124 C 
ATOM     25  N4  LIG L   1      44.984  31.455  77.949  1.00  0.00    -0.327 N 
BRANCH   25   26
ATOM     26 C17  LIG L   1      45.722  30.293  77.769  1.00  0.00     0.030 A 
ATOM     27 C18  LIG L   1      46.104  29.868  76.482  1.00  0.00     0.026 A 
ATOM     28 C19  LIG L   1      46.150  29.498  78.847  1.00  0.00     0.026 A 
ATOM     29 C20  LIG L   1      46.858  28.707  76.278  1.00  0.00     0.040 A 
ATOM     30 C21  LIG L   1      46.902  28.333  78.653  1.00  0.00     0.040 A 
ATOM     31 C22  LIG L   1      47.250  27.949  77.368  1.00  0.00     0.124 A 
ATOM     32  F2  LIG L   1      47.970  26.836  77.180  1.00  0.00    -0.205 F 
ENDBRANCH   25   26
ENDBRANCH    4   20
TORSDOF 5
ENDMDL
MODEL 14
REMARK VINA RESULT:    -6.573      1.421      1.975
REMARK ITER + INTRA:           -9.380
REMARK INTER:                  -8.629
REMARK INTRA:                  -0.751
REMARK UNBOUND:                -0.886
REMARK Flexibility Score: inf
REMARK Active torsions [ 5 ] -> [ 5 ]
ROOT
ATOM      1  C1  LIG L   1      43.290  34.723  79.192  1.00  0.00     0.042 A 
ATOM      2  C2  LIG L   1      43.751  35.858  78.514  1.00  0.00     0.025 A 
ATOM      3  C3  LIG L   1      43.487  37.158  78.983  1.00  0.00     0.028 A 
ATOM      4  C4  LIG L   1      42.750  37.397  80.149  1.00  0.00     0.066 A 
ATOM      5  C5  LIG L   1      42.304  36.239  80.819  1.00  0.00     0.146 A 
ATOM      6  F1  LIG L   1      41.615  36.342  81.968  1.00  0.00    -0.203 F 
ATOM      7  C6  LIG L   1      42.560  34.940  80.359  1.00  0.00     0.063 A 
ENDROOT
BRANCH    1    8
ATOM      8  N1  LIG L   1      43.571  33.420  78.704  1.00  0.00    -0.234 N 
ATOM      9  C7  LIG L   1      44.244  31.203  78.609  1.00  0.00     0.213 C 
ATOM     10  C8  LIG L   1      44.376  32.475  79.417  1.00  0.00     0.163 C 
ATOM     11  O1  LIG L   1      43.683  31.609  77.358  1.00  0.00    -0.444 O 
ATOM     12  C9  LIG L   1      43.227  32.896  77.465  1.00  0.00     0.408 C 
ATOM     13  O2  LIG L   1      42.627  33.437  76.552  1.00  0.00    -0.226 OA
BRANCH    9   14
ATOM     14 C10  LIG L   1      45.567  30.452  78.414  1.00  0.00     0.150 C 
BRANCH   14   15
ATOM     15  N2  LIG L   1      45.704  29.275  79.259  1.00  0.00    -0.312 N 
ATOM     16 C11  LIG L   1      46.133  28.059  81.306  1.00  0.00     0.109 C 
ATOM     17 C12  LIG L   1      46.133  29.370  80.566  1.00  0.00     0.210 C 
ATOM     18  O3  LIG L   1      46.523  30.410  81.084  1.00  0.00    -0.276 OA
ATOM     19  H1  LIG L   1      45.484  28.389  78.889  1.00  0.00     0.149 HD
ENDBRANCH   14   15
ENDBRANCH    9   14
ENDBRANCH    1    8
BRANCH    4   20
ATOM     20  N3  LIG L   1      42.493  38.684  80.631  1.00  0.00    -0.325 N 
ATOM     21 C13  LIG L   1      43.136  39.044  81.925  1.00  0.00     0.124 C 
ATOM     22 C14  LIG L   1      41.242  39.409  80.353  1.00  0.00     0.124 C 
ATOM     23 C15  LIG L   1      42.441  40.224  82.653  1.00  0.00     0.124 C 
ATOM     24 C16  LIG L   1      40.315  39.427  81.588  1.00  0.00     0.124 C 
ATOM     25  N4  LIG L   1      40.983  40.018  82.770  1.00  0.00    -0.327 N 
BRANCH   25   26
ATOM     26 C17  LIG L   1      40.223  40.700  83.711  1.00  0.00     0.030 A 
ATOM     27 C18  LIG L   1      38.871  41.006  83.466  1.00  0.00     0.026 A 
ATOM     28 C19  LIG L   1      40.743  41.096  84.956  1.00  0.00     0.026 A 
ATOM     29 C20  LIG L   1      38.082  41.680  84.405  1.00  0.00     0.040 A 
ATOM     30 C21  LIG L   1      39.962  41.774  85.899  1.00  0.00     0.040 A 
ATOM     31 C22  LIG L   1      38.638  42.061  85.614  1.00  0.00     0.124 A 
ATOM     32  F2  LIG L   1      37.889  42.708  86.516  1.00  0.00    -0.205 F 
ENDBRANCH   25   26
ENDBRANCH    4   20
TORSDOF 5
ENDMDL
MODEL 15
REMARK VINA RESULT:    -6.559      3.922     11.515
REMARK ITER + INTRA:           -9.362
REMARK INTER:                  -8.797
REMARK INTRA:                  -0.565
REMARK UNBOUND:                -0.886
REMARK Flexibility Score: inf
REMARK Active torsions [ 5 ] -> [ 5 ]
ROOT
ATOM      1  C1  LIG L   1      42.238  36.889  80.491  1.00  0.00     0.042 A 
ATOM      2  C2  LIG L   1      42.863  37.085  79.253  1.00  0.00     0.025 A 
ATOM      3  C3  LIG L   1      43.530  36.040  78.588  1.00  0.00     0.028 A 
ATOM      4  C4  LIG L   1      43.613  34.747  79.118  1.00  0.00     0.066 A 
ATOM      5  C5  LIG L   1      42.969  34.573  80.361  1.00  0.00     0.146 A 
ATOM      6  F1  LIG L   1      42.952  33.367  80.953  1.00  0.00    -0.203 F 
ATOM      7  C6  LIG L   1      42.303  35.607  81.032  1.00  0.00     0.063 A 
ENDROOT
BRANCH    1    8
ATOM      8  N1  LIG L   1      41.566  37.955  81.143  1.00  0.00    -0.234 N 
ATOM      9  C7  LIG L   1      41.012  39.586  82.697  1.00  0.00     0.213 C 
ATOM     10  C8  LIG L   1      41.803  38.310  82.510  1.00  0.00     0.163 C 
ATOM     11  O1  LIG L   1      40.139  39.655  81.566  1.00  0.00    -0.444 O 
ATOM     12  C9  LIG L   1      40.534  38.734  80.634  1.00  0.00     0.408 C 
ATOM     13  O2  LIG L   1      39.996  38.661  79.541  1.00  0.00    -0.226 OA
BRANCH    9   14
ATOM     14 C10  LIG L   1      40.229  39.642  84.014  1.00  0.00     0.150 C 
BRANCH   14   15
ATOM     15  N2  LIG L   1      38.963  40.355  83.914  1.00  0.00    -0.312 N 
ATOM     16 C11  LIG L   1      37.338  42.062  84.455  1.00  0.00     0.109 C 
ATOM     17 C12  LIG L   1      38.651  41.395  84.764  1.00  0.00     0.210 C 
ATOM     18  O3  LIG L   1      39.347  41.735  85.714  1.00  0.00    -0.276 OA
ATOM     19  H1  LIG L   1      38.315  40.087  83.223  1.00  0.00     0.149 HD
ENDBRANCH   14   15
ENDBRANCH    9   14
ENDBRANCH    1    8
BRANCH    4   20
ATOM     20  N3  LIG L   1      44.262  33.699  78.459  1.00  0.00    -0.325 N 
ATOM     21 C13  LIG L   1      43.444  32.486  78.185  1.00  0.00     0.124 C 
ATOM     22 C14  LIG L   1      45.705  33.440  78.595  1.00  0.00     0.124 C 
ATOM     23 C15  LIG L   1      44.292  31.211  77.942  1.00  0.00     0.124 C 
ATOM     24 C16  LIG L   1      45.976  32.220  79.501  1.00  0.00     0.124 C 
ATOM     25  N4  LIG L   1      45.294  31.003  79.007  1.00  0.00    -0.327 N 
BRANCH   25   26
ATOM     26 C17  LIG L   1      45.869  29.760  79.235  1.00  0.00     0.030 A 
ATOM     27 C18  LIG L   1      46.620  29.114  78.234  1.00  0.00     0.026 A 
ATOM     28 C19  LIG L   1      45.761  29.095  80.469  1.00  0.00     0.026 A 
ATOM     29 C20  LIG L   1      47.219  27.868  78.445  1.00  0.00     0.040 A 
ATOM     30 C21  LIG L   1      46.354  27.846  80.688  1.00  0.00     0.040 A 
ATOM     31 C22  LIG L   1      47.079  27.243  79.673  1.00  0.00     0.124 A 
ATOM     32  F2  LIG L   1      47.648  26.050  79.881  1.00  0.00    -0.205 F 
ENDBRANCH   25   26
ENDBRANCH    4   20
TORSDOF 5
ENDMDL
MODEL 16
REMARK VINA RESULT:    -6.559      4.280     11.513
REMARK ITER + INTRA:           -9.362
REMARK INTER:                  -8.534
REMARK INTRA:                  -0.828
REMARK UNBOUND:                -0.886
REMARK Flexibility Score: inf
REMARK Active torsions [ 5 ] -> [ 5 ]
ROOT
ATOM      1  C1  LIG L   1      42.597  37.206  79.678  1.00  0.00     0.042 A 
ATOM      2  C2  LIG L   1      42.401  36.493  80.868  1.00  0.00     0.025 A 
ATOM      3  C3  LIG L   1      42.864  35.173  81.023  1.00  0.00     0.028 A 
ATOM      4  C4  LIG L   1      43.542  34.493  80.004  1.00  0.00     0.066 A 
ATOM      5  C5  LIG L   1      43.733  35.235  78.819  1.00  0.00     0.146 A 
ATOM      6  F1  LIG L   1      44.400  34.699  77.784  1.00  0.00    -0.203 F 
ATOM      7  C6  LIG L   1      43.275  36.549  78.655  1.00  0.00     0.063 A 
ENDROOT
BRANCH    1    8
ATOM      8  N1  LIG L   1      42.126  38.539  79.545  1.00  0.00    -0.234 N 
ATOM      9  C7  LIG L   1      42.050  40.810  79.084  1.00  0.00     0.213 C 
ATOM     10  C8  LIG L   1      42.995  39.659  79.344  1.00  0.00     0.163 C 
ATOM     11  O1  LIG L   1      40.763  40.340  79.494  1.00  0.00    -0.444 O 
ATOM     12  C9  LIG L   1      40.819  38.985  79.687  1.00  0.00     0.408 C 
ATOM     13  O2  LIG L   1      39.821  38.339  79.957  1.00  0.00    -0.226 OA
BRANCH    9   14
ATOM     14 C10  LIG L   1      42.433  42.104  79.814  1.00  0.00     0.150 C 
BRANCH   14   15
ATOM     15  N2  LIG L   1      41.456  42.529  80.805  1.00  0.00    -0.312 N 
ATOM     16 C11  LIG L   1      40.514  42.775  83.020  1.00  0.00     0.109 C 
ATOM     17 C12  LIG L   1      41.571  42.174  82.133  1.00  0.00     0.210 C 
ATOM     18  O3  LIG L   1      42.425  41.408  82.564  1.00  0.00    -0.276 OA
ATOM     19  H1  LIG L   1      40.693  43.084  80.521  1.00  0.00     0.149 HD
ENDBRANCH   14   15
ENDBRANCH    9   14
ENDBRANCH    1    8
BRANCH    4   20
ATOM     20  N3  LIG L   1      44.017  33.187  80.152  1.00  0.00    -0.325 N 
ATOM     21 C13  LIG L   1      45.496  33.025  80.204  1.00  0.00     0.124 C 
ATOM     22 C14  LIG L   1      43.295  32.009  79.640  1.00  0.00     0.124 C 
ATOM     23 C15  LIG L   1      45.973  31.592  79.854  1.00  0.00     0.124 C 
ATOM     24 C16  LIG L   1      43.961  31.451  78.364  1.00  0.00     0.124 C 
ATOM     25  N4  LIG L   1      45.384  31.107  78.590  1.00  0.00    -0.327 N 
BRANCH   25   26
ATOM     26 C17  LIG L   1      45.953  30.065  77.872  1.00  0.00     0.030 A 
ATOM     27 C18  LIG L   1      46.519  28.955  78.529  1.00  0.00     0.026 A 
ATOM     28 C19  LIG L   1      45.976  30.042  76.466  1.00  0.00     0.026 A 
ATOM     29 C20  LIG L   1      47.088  27.888  77.825  1.00  0.00     0.040 A 
ATOM     30 C21  LIG L   1      46.546  28.980  75.754  1.00  0.00     0.040 A 
ATOM     31 C22  LIG L   1      47.097  27.912  76.441  1.00  0.00     0.124 A 
ATOM     32  F2  LIG L   1      47.641  26.894  75.762  1.00  0.00    -0.205 F 
ENDBRANCH   25   26
ENDBRANCH    4   20
TORSDOF 5
ENDMDL
MODEL 17
REMARK VINA RESULT:    -6.551      4.583     12.469
REMARK ITER + INTRA:           -9.351
REMARK INTER:                  -8.553
REMARK INTRA:                  -0.798
REMARK UNBOUND:                -0.886
REMARK Flexibility Score: inf
REMARK Active torsions [ 5 ] -> [ 5 ]
ROOT
ATOM      1  C1  LIG L   1      44.232  35.608  79.436  1.00  0.00     0.042 A 
ATOM      2  C2  LIG L   1      45.247  35.323  80.357  1.00  0.00     0.025 A 
ATOM      3  C3  LIG L   1      46.004  34.139  80.281  1.00  0.00     0.028 A 
ATOM      4  C4  LIG L   1      45.791  33.177  79.287  1.00  0.00     0.066 A 
ATOM      5  C5  LIG L   1      44.769  33.490  78.366  1.00  0.00     0.146 A 
ATOM      6  F1  LIG L   1      44.495  32.658  77.348  1.00  0.00    -0.203 F 
ATOM      7  C6  LIG L   1      44.009  34.666  78.434  1.00  0.00     0.063 A 
ENDROOT
BRANCH    1    8
ATOM      8  N1  LIG L   1      43.483  36.810  79.528  1.00  0.00    -0.234 N 
ATOM      9  C7  LIG L   1      42.010  38.433  80.286  1.00  0.00     0.213 C 
ATOM     10  C8  LIG L   1      42.357  36.965  80.398  1.00  0.00     0.163 C 
ATOM     11  O1  LIG L   1      42.718  38.899  79.134  1.00  0.00    -0.444 O 
ATOM     12  C9  LIG L   1      43.632  37.953  78.753  1.00  0.00     0.408 C 
ATOM     13  O2  LIG L   1      44.419  38.157  77.844  1.00  0.00    -0.226 OA
BRANCH    9   14
ATOM     14 C10  LIG L   1      40.506  38.707  80.169  1.00  0.00     0.150 C 
BRANCH   14   15
ATOM     15  N2  LIG L   1      39.875  39.066  81.431  1.00  0.00    -0.312 N 
ATOM     16 C11  LIG L   1      38.985  40.559  83.113  1.00  0.00     0.109 C 
ATOM     17 C12  LIG L   1      39.734  40.382  81.820  1.00  0.00     0.210 C 
ATOM     18  O3  LIG L   1      40.203  41.331  81.204  1.00  0.00    -0.276 OA
ATOM     19  H1  LIG L   1      39.541  38.352  82.021  1.00  0.00     0.149 HD
ENDBRANCH   14   15
ENDBRANCH    9   14
ENDBRANCH    1    8
BRANCH    4   20
ATOM     20  N3  LIG L   1      46.546  32.004  79.194  1.00  0.00    -0.325 N 
ATOM     21 C13  LIG L   1      47.521  31.934  78.071  1.00  0.00     0.124 C 
ATOM     22 C14  LIG L   1      46.049  30.694  79.648  1.00  0.00     0.124 C 
ATOM     23 C15  LIG L   1      47.939  30.487  77.704  1.00  0.00     0.124 C 
ATOM     24 C16  LIG L   1      45.648  29.800  78.456  1.00  0.00     0.124 C 
ATOM     25  N4  LIG L   1      46.769  29.608  77.508  1.00  0.00    -0.327 N 
BRANCH   25   26
ATOM     26 C17  LIG L   1      46.859  28.422  76.792  1.00  0.00     0.030 A 
ATOM     27 C18  LIG L   1      46.643  28.397  75.401  1.00  0.00     0.026 A 
ATOM     28 C19  LIG L   1      47.193  27.198  77.399  1.00  0.00     0.026 A 
ATOM     29 C20  LIG L   1      46.741  27.216  74.657  1.00  0.00     0.040 A 
ATOM     30 C21  LIG L   1      47.290  26.011  76.663  1.00  0.00     0.040 A 
ATOM     31 C22  LIG L   1      47.063  26.031  75.298  1.00  0.00     0.124 A 
ATOM     32  F2  LIG L   1      47.156  24.898  74.591  1.00  0.00    -0.205 F 
ENDBRANCH   25   26
ENDBRANCH    4   20
TORSDOF 5
ENDMDL
MODEL 18
REMARK VINA RESULT:    -6.547      6.240      7.755
REMARK ITER + INTRA:           -9.347
REMARK INTER:                  -8.581
REMARK INTRA:                  -0.765
REMARK UNBOUND:                -0.886
REMARK Flexibility Score: inf
REMARK Active torsions [ 5 ] -> [ 5 ]
ROOT
ATOM      1  C1  LIG L   1      46.532  35.463  74.226  1.00  0.00     0.042 A 
ATOM      2  C2  LIG L   1      46.712  34.424  75.147  1.00  0.00     0.025 A 
ATOM      3  C3  LIG L   1      46.070  34.427  76.400  1.00  0.00     0.028 A 
ATOM      4  C4  LIG L   1      45.219  35.463  76.802  1.00  0.00     0.066 A 
ATOM      5  C5  LIG L   1      45.048  36.494  75.854  1.00  0.00     0.146 A 
ATOM      6  F1  LIG L   1      44.227  37.525  76.114  1.00  0.00    -0.203 F 
ATOM      7  C6  LIG L   1      45.683  36.500  74.605  1.00  0.00     0.063 A 
ENDROOT
BRANCH    1    8
ATOM      8  N1  LIG L   1      47.185  35.438  72.966  1.00  0.00    -0.234 N 
ATOM      9  C7  LIG L   1      47.774  34.843  70.804  1.00  0.00     0.213 C 
ATOM     10  C8  LIG L   1      47.069  34.348  72.046  1.00  0.00     0.163 C 
ATOM     11  O1  LIG L   1      48.513  35.993  71.225  1.00  0.00    -0.444 O 
ATOM     12  C9  LIG L   1      48.094  36.367  72.473  1.00  0.00     0.408 C 
ATOM     13  O2  LIG L   1      48.516  37.376  73.012  1.00  0.00    -0.226 OA
BRANCH    9   14
ATOM     14 C10  LIG L   1      48.686  33.798  70.150  1.00  0.00     0.150 C 
BRANCH   14   15
ATOM     15  N2  LIG L   1      48.282  32.423  70.409  1.00  0.00    -0.312 N 
ATOM     16 C11  LIG L   1      48.602  30.047  70.730  1.00  0.00     0.109 C 
ATOM     17 C12  LIG L   1      49.185  31.382  70.353  1.00  0.00     0.210 C 
ATOM     18  O3  LIG L   1      50.349  31.505  69.991  1.00  0.00    -0.276 OA
ATOM     19  H1  LIG L   1      47.342  32.232  70.630  1.00  0.00     0.149 HD
ENDBRANCH   14   15
ENDBRANCH    9   14
ENDBRANCH    1    8
BRANCH    4   20
ATOM     20  N3  LIG L   1      44.566  35.470  78.038  1.00  0.00    -0.325 N 
ATOM     21 C13  LIG L   1      43.103  35.196  78.013  1.00  0.00     0.124 C 
ATOM     22 C14  LIG L   1      45.008  36.298  79.173  1.00  0.00     0.124 C 
ATOM     23 C15  LIG L   1      42.356  35.707  79.272  1.00  0.00     0.124 C 
ATOM     24 C16  LIG L   1      44.086  37.519  79.373  1.00  0.00     0.124 C 
ATOM     25  N4  LIG L   1      42.674  37.119  79.567  1.00  0.00    -0.327 N 
BRANCH   25   26
ATOM     26 C17  LIG L   1      41.848  37.902  80.360  1.00  0.00     0.030 A 
ATOM     27 C18  LIG L   1      41.097  38.957  79.806  1.00  0.00     0.026 A 
ATOM     28 C19  LIG L   1      41.692  37.677  81.740  1.00  0.00     0.026 A 
ATOM     29 C20  LIG L   1      40.248  39.752  80.583  1.00  0.00     0.040 A 
ATOM     30 C21  LIG L   1      40.847  38.470  82.526  1.00  0.00     0.040 A 
ATOM     31 C22  LIG L   1      40.133  39.501  81.940  1.00  0.00     0.124 A 
ATOM     32  F2  LIG L   1      39.323  40.259  82.690  1.00  0.00    -0.205 F 
ENDBRANCH   25   26
ENDBRANCH    4   20
TORSDOF 5
ENDMDL
MODEL 19
REMARK VINA RESULT:    -6.531      4.265     11.115
REMARK ITER + INTRA:           -9.325
REMARK INTER:                  -8.565
REMARK INTRA:                  -0.760
REMARK UNBOUND:                -0.886
REMARK Flexibility Score: inf
REMARK Active torsions [ 5 ] -> [ 5 ]
ROOT
ATOM      1  C1  LIG L   1      42.450  36.936  81.143  1.00  0.00     0.042 A 
ATOM      2  C2  LIG L   1      42.373  35.559  81.388  1.00  0.00     0.025 A 
ATOM      3  C3  LIG L   1      42.746  34.613  80.415  1.00  0.00     0.028 A 
ATOM      4  C4  LIG L   1      43.213  34.986  79.149  1.00  0.00     0.066 A 
ATOM      5  C5  LIG L   1      43.289  36.378  78.930  1.00  0.00     0.146 A 
ATOM      6  F1  LIG L   1      43.754  36.856  77.764  1.00  0.00    -0.203 F 
ATOM      7  C6  LIG L   1      42.919  37.327  79.892  1.00  0.00     0.063 A 
ENDROOT
BRANCH    1    8
ATOM      8  N1  LIG L   1      42.073  37.873  82.140  1.00  0.00    -0.234 N 
ATOM      9  C7  LIG L   1      42.150  39.270  83.990  1.00  0.00     0.213 C 
ATOM     10  C8  LIG L   1      42.820  38.078  83.344  1.00  0.00     0.163 C 
ATOM     11  O1  LIG L   1      40.904  39.417  83.303  1.00  0.00    -0.444 O 
ATOM     12  C9  LIG L   1      40.915  38.640  82.177  1.00  0.00     0.408 C 
ATOM     13  O2  LIG L   1      39.994  38.662  81.377  1.00  0.00    -0.226 OA
BRANCH    9   14
ATOM     14 C10  LIG L   1      41.942  39.120  85.502  1.00  0.00     0.150 C 
BRANCH   14   15
ATOM     15  N2  LIG L   1      42.941  38.282  86.151  1.00  0.00    -0.312 N 
ATOM     16 C11  LIG L   1      44.797  37.789  87.621  1.00  0.00     0.109 C 
ATOM     17 C12  LIG L   1      43.906  38.817  86.977  1.00  0.00     0.210 C 
ATOM     18  O3  LIG L   1      44.067  40.019  87.153  1.00  0.00    -0.276 OA
ATOM     19  H1  LIG L   1      42.927  37.310  85.996  1.00  0.00     0.149 HD
ENDBRANCH   14   15
ENDBRANCH    9   14
ENDBRANCH    1    8
BRANCH    4   20
ATOM     20  N3  LIG L   1      43.599  34.056  78.180  1.00  0.00    -0.325 N 
ATOM     21 C13  LIG L   1      42.853  32.768  78.167  1.00  0.00     0.124 C 
ATOM     22 C14  LIG L   1      44.974  33.965  77.660  1.00  0.00     0.124 C 
ATOM     23 C15  LIG L   1      43.618  31.616  77.466  1.00  0.00     0.124 C 
ATOM     24 C16  LIG L   1      45.717  32.744  78.245  1.00  0.00     0.124 C 
ATOM     25  N4  LIG L   1      44.997  31.479  77.976  1.00  0.00    -0.327 N 
BRANCH   25   26
ATOM     26 C17  LIG L   1      45.720  30.305  77.818  1.00  0.00     0.030 A 
ATOM     27 C18  LIG L   1      46.103  29.856  76.539  1.00  0.00     0.026 A 
ATOM     28 C19  LIG L   1      46.129  29.518  78.909  1.00  0.00     0.026 A 
ATOM     29 C20  LIG L   1      46.843  28.683  76.356  1.00  0.00     0.040 A 
ATOM     30 C21  LIG L   1      46.866  28.341  78.735  1.00  0.00     0.040 A 
ATOM     31 C22  LIG L   1      47.216  27.934  77.459  1.00  0.00     0.124 A 
ATOM     32  F2  LIG L   1      47.922  26.809  77.290  1.00  0.00    -0.205 F 
ENDBRANCH   25   26
ENDBRANCH    4   20
TORSDOF 5
ENDMDL
MODEL 20
REMARK VINA RESULT:    -6.501      4.223     11.624
REMARK ITER + INTRA:           -9.287
REMARK INTER:                  -8.452
REMARK INTRA:                  -0.835
REMARK UNBOUND:                -0.886
REMARK Flexibility Score: inf
REMARK Active torsions [ 5 ] -> [ 5 ]
ROOT
ATOM      1  C1  LIG L   1      42.688  36.360  80.615  1.00  0.00     0.042 A 
ATOM      2  C2  LIG L   1      43.432  35.360  81.254  1.00  0.00     0.025 A 
ATOM      3  C3  LIG L   1      43.553  34.067  80.710  1.00  0.00     0.028 A 
ATOM      4  C4  LIG L   1      42.940  33.701  79.506  1.00  0.00     0.066 A 
ATOM      5  C5  LIG L   1      42.203  34.728  78.878  1.00  0.00     0.146 A 
ATOM      6  F1  LIG L   1      41.598  34.505  77.700  1.00  0.00    -0.203 F 
ATOM      7  C6  LIG L   1      42.076  36.017  79.412  1.00  0.00     0.063 A 
ENDROOT
BRANCH    1    8
ATOM      8  N1  LIG L   1      42.583  37.658  81.178  1.00  0.00    -0.234 N 
ATOM      9  C7  LIG L   1      41.760  39.505  82.314  1.00  0.00     0.213 C 
ATOM     10  C8  LIG L   1      41.350  38.206  81.657  1.00  0.00     0.163 C 
ATOM     11  O1  LIG L   1      43.094  39.750  81.861  1.00  0.00    -0.444 O 
ATOM     12  C9  LIG L   1      43.582  38.620  81.261  1.00  0.00     0.408 C 
ATOM     13  O2  LIG L   1      44.735  38.554  80.868  1.00  0.00    -0.226 OA
BRANCH    9   14
ATOM     14 C10  LIG L   1      40.832  40.682  81.992  1.00  0.00     0.150 C 
BRANCH   14   15
ATOM     15  N2  LIG L   1      40.072  40.511  80.762  1.00  0.00    -0.312 N 
ATOM     16 C11  LIG L   1      39.689  40.558  78.374  1.00  0.00     0.109 C 
ATOM     17 C12  LIG L   1      40.583  40.889  79.538  1.00  0.00     0.210 C 
ATOM     18  O3  LIG L   1      41.648  41.479  79.394  1.00  0.00    -0.276 OA
ATOM     19  H1  LIG L   1      39.172  40.115  80.805  1.00  0.00     0.149 HD
ENDBRANCH   14   15
ENDBRANCH    9   14
ENDBRANCH    1    8
BRANCH    4   20
ATOM     20  N3  LIG L   1      43.064  32.424  78.950  1.00  0.00    -0.325 N 
ATOM     21 C13  LIG L   1      43.366  31.318  79.900  1.00  0.00     0.124 C 
ATOM     22 C14  LIG L   1      43.541  32.192  77.576  1.00  0.00     0.124 C 
ATOM     23 C15  LIG L   1      43.988  30.072  79.219  1.00  0.00     0.124 C 
ATOM     24 C16  LIG L   1      44.993  31.667  77.566  1.00  0.00     0.124 C 
ATOM     25  N4  LIG L   1      45.137  30.426  78.361  1.00  0.00    -0.327 N 
BRANCH   25   26
ATOM     26 C17  LIG L   1      46.087  29.486  77.989  1.00  0.00     0.030 A 
ATOM     27 C18  LIG L   1      46.783  28.736  78.958  1.00  0.00     0.026 A 
ATOM     28 C19  LIG L   1      46.389  29.211  76.644  1.00  0.00     0.026 A 
ATOM     29 C20  LIG L   1      47.736  27.774  78.606  1.00  0.00     0.040 A 
ATOM     30 C21  LIG L   1      47.344  28.252  76.283  1.00  0.00     0.040 A 
ATOM     31 C22  LIG L   1      48.009  27.542  77.269  1.00  0.00     0.124 A 
ATOM     32  F2  LIG L   1      48.922  26.624  76.926  1.00  0.00    -0.205 F 
ENDBRANCH   25   26
ENDBRANCH    4   20
TORSDOF 5
ENDMDL
