MODEL 1
REMARK VINA RESULT:    -6.171      0.000      0.000
REMARK ITER + INTRA:           -8.239
REMARK INTER:                  -7.643
REMARK INTRA:                  -0.596
REMARK UNBOUND:                -0.625
REMARK Flexibility Score: inf
REMARK Active torsions [ 4 ] -> [ 4 ]
ROOT
ATOM      1  C1  LIG L   1      44.963  36.049  76.621  1.00  0.00     0.213 C 
ATOM      2  C2  LIG L   1      45.361  35.127  75.490  1.00  0.00     0.163 C 
ATOM      3  N1  LIG L   1      45.879  36.036  74.508  1.00  0.00    -0.234 N 
ATOM      4  C3  LIG L   1      45.415  37.313  74.787  1.00  0.00     0.408 C 
ATOM      5  O1  LIG L   1      45.532  38.335  74.129  1.00  0.00    -0.226 OA
ATOM      6  O2  LIG L   1      44.728  37.308  75.976  1.00  0.00    -0.444 O 
ENDROOT
BRANCH    1    7
ATOM      7  C4  LIG L   1      43.713  35.619  77.389  1.00  0.00     0.150 C 
BRANCH    7    8
ATOM      8  N2  LIG L   1      42.716  34.966  76.558  1.00  0.00    -0.312 N 
ATOM      9  C5  LIG L   1      40.744  33.673  76.055  1.00  0.00     0.109 C 
ATOM     10  C6  LIG L   1      41.645  34.287  77.090  1.00  0.00     0.210 C 
ATOM     11  O3  LIG L   1      41.429  34.209  78.294  1.00  0.00    -0.276 OA
ATOM     12  H1  LIG L   1      42.811  35.012  75.579  1.00  0.00     0.149 HD
ENDBRANCH    7    8
ENDBRANCH    1    7
BRANCH    3   13
ATOM     13  C7  LIG L   1      46.604  35.615  73.363  1.00  0.00     0.042 A 
ATOM     14  C8  LIG L   1      47.925  36.007  73.136  1.00  0.00     0.025 A 
ATOM     15  C9  LIG L   1      46.014  34.776  72.413  1.00  0.00     0.063 A 
ATOM     16 C10  LIG L   1      48.631  35.568  72.003  1.00  0.00     0.028 A 
ATOM     17 C11  LIG L   1      46.725  34.344  71.286  1.00  0.00     0.146 A 
ATOM     18 C12  LIG L   1      48.060  34.711  71.050  1.00  0.00     0.066 A 
ATOM     19  F1  LIG L   1      46.071  33.533  70.439  1.00  0.00    -0.203 F 
BRANCH   18   20
ATOM     20  N3  LIG L   1      48.830  34.319  69.937  1.00  0.00    -0.323 N 
ATOM     21 C13  LIG L   1      50.216  33.862  70.183  1.00  0.00     0.133 C 
ATOM     22 C14  LIG L   1      48.765  35.270  68.797  1.00  0.00     0.133 C 
ATOM     23 C15  LIG L   1      50.812  33.286  68.888  1.00  0.00     0.178 C 
ATOM     24 C16  LIG L   1      49.441  34.658  67.558  1.00  0.00     0.178 C 
ATOM     25  O4  LIG L   1      50.793  34.256  67.829  1.00  0.00    -0.377 OA
ENDBRANCH   18   20
ENDBRANCH    3   13
TORSDOF 4
ENDMDL
MODEL 2
REMARK VINA RESULT:    -6.114      8.000     11.516
REMARK ITER + INTRA:           -8.169
REMARK INTER:                  -7.542
REMARK INTRA:                  -0.627
REMARK UNBOUND:                -0.625
REMARK Flexibility Score: inf
REMARK Active torsions [ 4 ] -> [ 4 ]
ROOT
ATOM      1  C1  LIG L   1      43.174  32.903  78.346  1.00  0.00     0.213 C 
ATOM      2  C2  LIG L   1      42.193  33.683  79.194  1.00  0.00     0.163 C 
ATOM      3  N1  LIG L   1      42.980  34.796  79.643  1.00  0.00    -0.234 N 
ATOM      4  C3  LIG L   1      44.324  34.482  79.509  1.00  0.00     0.408 C 
ATOM      5  O1  LIG L   1      45.301  35.109  79.885  1.00  0.00    -0.226 OA
ATOM      6  O2  LIG L   1      44.457  33.273  78.870  1.00  0.00    -0.444 O 
ENDROOT
BRANCH    1    7
ATOM      7  C4  LIG L   1      43.008  31.384  78.408  1.00  0.00     0.150 C 
BRANCH    7    8
ATOM      8  N2  LIG L   1      44.196  30.689  78.874  1.00  0.00    -0.312 N 
ATOM      9  C5  LIG L   1      45.526  29.284  80.313  1.00  0.00     0.109 C 
ATOM     10  C6  LIG L   1      44.190  29.897  79.999  1.00  0.00     0.210 C 
ATOM     11  O3  LIG L   1      43.186  29.689  80.671  1.00  0.00    -0.276 OA
ATOM     12  H1  LIG L   1      45.034  30.787  78.366  1.00  0.00     0.149 HD
ENDBRANCH    7    8
ENDBRANCH    1    7
BRANCH    3   13
ATOM     13  C7  LIG L   1      42.422  35.939  80.272  1.00  0.00     0.042 A 
ATOM     14  C8  LIG L   1      42.237  36.010  81.654  1.00  0.00     0.025 A 
ATOM     15  C9  LIG L   1      42.037  37.053  79.519  1.00  0.00     0.063 A 
ATOM     16 C10  LIG L   1      41.695  37.156  82.261  1.00  0.00     0.028 A 
ATOM     17 C11  LIG L   1      41.497  38.191  80.132  1.00  0.00     0.146 A 
ATOM     18 C12  LIG L   1      41.322  38.289  81.522  1.00  0.00     0.066 A 
ATOM     19  F1  LIG L   1      41.169  39.211  79.321  1.00  0.00    -0.203 F 
BRANCH   18   20
ATOM     20  N3  LIG L   1      40.781  39.398  82.200  1.00  0.00    -0.323 N 
ATOM     21 C13  LIG L   1      41.599  40.630  82.272  1.00  0.00     0.133 C 
ATOM     22 C14  LIG L   1      40.186  39.063  83.520  1.00  0.00     0.133 C 
ATOM     23 C15  LIG L   1      40.761  41.778  82.860  1.00  0.00     0.178 C 
ATOM     24 C16  LIG L   1      39.424  40.277  84.081  1.00  0.00     0.178 C 
ATOM     25  O4  LIG L   1      40.260  41.441  84.164  1.00  0.00    -0.377 OA
ENDBRANCH   18   20
ENDBRANCH    3   13
TORSDOF 4
ENDMDL
MODEL 3
REMARK VINA RESULT:    -5.994      3.361      5.249
REMARK ITER + INTRA:           -8.020
REMARK INTER:                  -7.457
REMARK INTRA:                  -0.564
REMARK UNBOUND:                -0.625
REMARK Flexibility Score: inf
REMARK Active torsions [ 4 ] -> [ 4 ]
ROOT
ATOM      1  C1  LIG L   1      42.648  33.653  79.285  1.00  0.00     0.213 C 
ATOM      2  C2  LIG L   1      43.913  33.937  78.505  1.00  0.00     0.163 C 
ATOM      3  N1  LIG L   1      43.417  34.585  77.324  1.00  0.00    -0.234 N 
ATOM      4  C3  LIG L   1      42.068  34.293  77.182  1.00  0.00     0.408 C 
ATOM      5  O1  LIG L   1      41.319  34.554  76.255  1.00  0.00    -0.226 OA
ATOM      6  O2  LIG L   1      41.626  33.597  78.280  1.00  0.00    -0.444 O 
ENDROOT
BRANCH    1    7
ATOM      7  C4  LIG L   1      42.665  32.346  80.080  1.00  0.00     0.150 C 
BRANCH    7    8
ATOM      8  N2  LIG L   1      43.770  31.470  79.733  1.00  0.00    -0.312 N 
ATOM      9  C5  LIG L   1      45.104  29.461  79.756  1.00  0.00     0.109 C 
ATOM     10  C6  LIG L   1      43.877  30.191  80.227  1.00  0.00     0.210 C 
ATOM     11  O3  LIG L   1      43.038  29.681  80.962  1.00  0.00    -0.276 OA
ATOM     12  H1  LIG L   1      44.468  31.804  79.123  1.00  0.00     0.149 HD
ENDBRANCH    7    8
ENDBRANCH    1    7
BRANCH    3   13
ATOM     13  C7  LIG L   1      44.253  35.261  76.398  1.00  0.00     0.042 A 
ATOM     14  C8  LIG L   1      45.045  34.575  75.475  1.00  0.00     0.025 A 
ATOM     15  C9  LIG L   1      44.310  36.658  76.374  1.00  0.00     0.063 A 
ATOM     16 C10  LIG L   1      45.857  35.261  74.556  1.00  0.00     0.028 A 
ATOM     17 C11  LIG L   1      45.123  37.334  75.456  1.00  0.00     0.146 A 
ATOM     18 C12  LIG L   1      45.910  36.663  74.506  1.00  0.00     0.066 A 
ATOM     19  F1  LIG L   1      45.099  38.677  75.508  1.00  0.00    -0.203 F 
BRANCH   18   20
ATOM     20  N3  LIG L   1      46.753  37.280  73.561  1.00  0.00    -0.323 N 
ATOM     21 C13  LIG L   1      47.173  36.482  72.387  1.00  0.00     0.133 C 
ATOM     22 C14  LIG L   1      47.900  38.008  74.163  1.00  0.00     0.133 C 
ATOM     23 C15  LIG L   1      47.906  37.384  71.380  1.00  0.00     0.178 C 
ATOM     24 C16  LIG L   1      48.628  38.832  73.087  1.00  0.00     0.178 C 
ATOM     25  O4  LIG L   1      49.047  38.017  71.981  1.00  0.00    -0.377 OA
ENDBRANCH   18   20
ENDBRANCH    3   13
TORSDOF 4
ENDMDL
MODEL 4
REMARK VINA RESULT:    -5.966      7.423     11.480
REMARK ITER + INTRA:           -7.986
REMARK INTER:                  -7.337
REMARK INTRA:                  -0.649
REMARK UNBOUND:                -0.625
REMARK Flexibility Score: inf
REMARK Active torsions [ 4 ] -> [ 4 ]
ROOT
ATOM      1  C1  LIG L   1      42.249  33.196  77.670  1.00  0.00     0.213 C 
ATOM      2  C2  LIG L   1      41.957  33.700  79.066  1.00  0.00     0.163 C 
ATOM      3  N1  LIG L   1      42.605  34.981  79.080  1.00  0.00    -0.234 N 
ATOM      4  C3  LIG L   1      43.543  35.023  78.059  1.00  0.00     0.408 C 
ATOM      5  O1  LIG L   1      44.375  35.882  77.814  1.00  0.00    -0.226 OA
ATOM      6  O2  LIG L   1      43.449  33.886  77.295  1.00  0.00    -0.444 O 
ENDROOT
BRANCH    1    7
ATOM      7  C4  LIG L   1      42.467  31.685  77.567  1.00  0.00     0.150 C 
BRANCH    7    8
ATOM      8  N2  LIG L   1      43.783  31.257  78.007  1.00  0.00    -0.312 N 
ATOM      9  C5  LIG L   1      45.409  30.161  79.410  1.00  0.00     0.109 C 
ATOM     10  C6  LIG L   1      43.967  30.476  79.124  1.00  0.00     0.210 C 
ATOM     11  O3  LIG L   1      43.043  30.053  79.809  1.00  0.00    -0.276 OA
ATOM     12  H1  LIG L   1      44.572  31.537  77.487  1.00  0.00     0.149 HD
ENDBRANCH    7    8
ENDBRANCH    1    7
BRANCH    3   13
ATOM     13  C7  LIG L   1      42.401  35.944  80.102  1.00  0.00     0.042 A 
ATOM     14  C8  LIG L   1      42.667  35.670  81.444  1.00  0.00     0.025 A 
ATOM     15  C9  LIG L   1      41.925  37.222  79.794  1.00  0.00     0.063 A 
ATOM     16 C10  LIG L   1      42.472  36.642  82.441  1.00  0.00     0.028 A 
ATOM     17 C11  LIG L   1      41.732  38.185  80.793  1.00  0.00     0.146 A 
ATOM     18 C12  LIG L   1      42.013  37.935  82.146  1.00  0.00     0.066 A 
ATOM     19  F1  LIG L   1      41.281  39.385  80.391  1.00  0.00    -0.203 F 
BRANCH   18   20
ATOM     20  N3  LIG L   1      41.836  38.853  83.200  1.00  0.00    -0.323 N 
ATOM     21 C13  LIG L   1      42.695  38.703  84.397  1.00  0.00     0.133 C 
ATOM     22 C14  LIG L   1      40.415  39.072  83.574  1.00  0.00     0.133 C 
ATOM     23 C15  LIG L   1      42.500  39.909  85.331  1.00  0.00     0.178 C 
ATOM     24 C16  LIG L   1      40.303  40.244  84.563  1.00  0.00     0.178 C 
ATOM     25  O4  LIG L   1      41.125  40.047  85.724  1.00  0.00    -0.377 OA
ENDBRANCH   18   20
ENDBRANCH    3   13
TORSDOF 4
ENDMDL
MODEL 5
REMARK VINA RESULT:    -5.908      1.561      1.759
REMARK ITER + INTRA:           -7.914
REMARK INTER:                  -7.354
REMARK INTRA:                  -0.560
REMARK UNBOUND:                -0.625
REMARK Flexibility Score: inf
REMARK Active torsions [ 4 ] -> [ 4 ]
ROOT
ATOM      1  C1  LIG L   1      44.819  36.515  77.276  1.00  0.00     0.213 C 
ATOM      2  C2  LIG L   1      45.186  35.315  76.431  1.00  0.00     0.163 C 
ATOM      3  N1  LIG L   1      45.709  35.916  75.238  1.00  0.00    -0.234 N 
ATOM      4  C3  LIG L   1      45.272  37.231  75.167  1.00  0.00     0.408 C 
ATOM      5  O1  LIG L   1      45.401  38.035  74.258  1.00  0.00    -0.226 OA
ATOM      6  O2  LIG L   1      44.600  37.560  76.318  1.00  0.00    -0.444 O 
ENDROOT
BRANCH    1    7
ATOM      7  C4  LIG L   1      43.570  36.333  78.140  1.00  0.00     0.150 C 
BRANCH    7    8
ATOM      8  N2  LIG L   1      42.662  35.316  77.641  1.00  0.00    -0.312 N 
ATOM      9  C5  LIG L   1      41.203  33.398  77.740  1.00  0.00     0.109 C 
ATOM     10  C6  LIG L   1      42.100  34.365  78.461  1.00  0.00     0.210 C 
ATOM     11  O3  LIG L   1      42.291  34.323  79.671  1.00  0.00    -0.276 OA
ATOM     12  H1  LIG L   1      42.440  35.306  76.681  1.00  0.00     0.149 HD
ENDBRANCH    7    8
ENDBRANCH    1    7
BRANCH    3   13
ATOM     13  C7  LIG L   1      46.412  35.188  74.244  1.00  0.00     0.042 A 
ATOM     14  C8  LIG L   1      47.689  34.669  74.467  1.00  0.00     0.025 A 
ATOM     15  C9  LIG L   1      45.840  34.956  72.989  1.00  0.00     0.063 A 
ATOM     16 C10  LIG L   1      48.364  33.938  73.475  1.00  0.00     0.028 A 
ATOM     17 C11  LIG L   1      46.520  34.228  72.005  1.00  0.00     0.146 A 
ATOM     18 C12  LIG L   1      47.796  33.680  72.218  1.00  0.00     0.066 A 
ATOM     19  F1  LIG L   1      45.879  34.053  70.838  1.00  0.00    -0.203 F 
BRANCH   18   20
ATOM     20  N3  LIG L   1      48.537  32.945  71.272  1.00  0.00    -0.323 N 
ATOM     21 C13  LIG L   1      48.956  31.573  71.639  1.00  0.00     0.133 C 
ATOM     22 C14  LIG L   1      49.654  33.709  70.659  1.00  0.00     0.133 C 
ATOM     23 C15  LIG L   1      49.562  30.869  70.414  1.00  0.00     0.178 C 
ATOM     24 C16  LIG L   1      50.258  32.915  69.487  1.00  0.00     0.178 C 
ATOM     25  O4  LIG L   1      50.680  31.603  69.891  1.00  0.00    -0.377 OA
ENDBRANCH   18   20
ENDBRANCH    3   13
TORSDOF 4
ENDMDL
MODEL 6
REMARK VINA RESULT:    -5.908      7.152      8.070
REMARK ITER + INTRA:           -7.914
REMARK INTER:                  -7.405
REMARK INTRA:                  -0.509
REMARK UNBOUND:                -0.625
REMARK Flexibility Score: inf
REMARK Active torsions [ 4 ] -> [ 4 ]
ROOT
ATOM      1  C1  LIG L   1      42.767  35.372  78.951  1.00  0.00     0.213 C 
ATOM      2  C2  LIG L   1      43.946  34.446  79.156  1.00  0.00     0.163 C 
ATOM      3  N1  LIG L   1      43.416  33.170  78.771  1.00  0.00    -0.234 N 
ATOM      4  C3  LIG L   1      42.030  33.226  78.810  1.00  0.00     0.408 C 
ATOM      5  O1  LIG L   1      41.220  32.324  78.667  1.00  0.00    -0.226 OA
ATOM      6  O2  LIG L   1      41.625  34.512  79.072  1.00  0.00    -0.444 O 
ENDROOT
BRANCH    1    7
ATOM      7  C4  LIG L   1      42.664  36.513  79.964  1.00  0.00     0.150 C 
BRANCH    7    8
ATOM      8  N2  LIG L   1      41.947  37.672  79.462  1.00  0.00    -0.312 N 
ATOM      9  C5  LIG L   1      40.404  39.525  79.516  1.00  0.00     0.109 C 
ATOM     10  C6  LIG L   1      41.047  38.370  80.233  1.00  0.00     0.210 C 
ATOM     11  O3  LIG L   1      40.809  38.096  81.404  1.00  0.00    -0.276 OA
ATOM     12  H1  LIG L   1      42.110  37.968  78.536  1.00  0.00     0.149 HD
ENDBRANCH    7    8
ENDBRANCH    1    7
BRANCH    3   13
ATOM     13  C7  LIG L   1      44.225  32.023  78.561  1.00  0.00     0.042 A 
ATOM     14  C8  LIG L   1      44.971  31.844  77.394  1.00  0.00     0.025 A 
ATOM     15  C9  LIG L   1      44.310  31.021  79.532  1.00  0.00     0.063 A 
ATOM     16 C10  LIG L   1      45.777  30.708  77.209  1.00  0.00     0.028 A 
ATOM     17 C11  LIG L   1      45.116  29.891  79.340  1.00  0.00     0.146 A 
ATOM     18 C12  LIG L   1      45.888  29.703  78.182  1.00  0.00     0.066 A 
ATOM     19  F1  LIG L   1      45.136  28.991  80.337  1.00  0.00    -0.203 F 
BRANCH   18   20
ATOM     20  N3  LIG L   1      46.713  28.591  77.923  1.00  0.00    -0.323 N 
ATOM     21 C13  LIG L   1      48.026  28.531  78.603  1.00  0.00     0.133 C 
ATOM     22 C14  LIG L   1      46.832  28.255  76.480  1.00  0.00     0.133 C 
ATOM     23 C15  LIG L   1      48.677  27.160  78.359  1.00  0.00     0.178 C 
ATOM     24 C16  LIG L   1      47.555  26.908  76.308  1.00  0.00     0.178 C 
ATOM     25  O4  LIG L   1      48.837  26.901  76.955  1.00  0.00    -0.377 OA
ENDBRANCH   18   20
ENDBRANCH    3   13
TORSDOF 4
ENDMDL
MODEL 7
REMARK VINA RESULT:    -5.847      7.303     10.191
REMARK ITER + INTRA:           -7.839
REMARK INTER:                  -7.260
REMARK INTRA:                  -0.579
REMARK UNBOUND:                -0.625
REMARK Flexibility Score: inf
REMARK Active torsions [ 4 ] -> [ 4 ]
ROOT
ATOM      1  C1  LIG L   1      45.091  30.659  79.526  1.00  0.00     0.213 C 
ATOM      2  C2  LIG L   1      45.259  32.160  79.607  1.00  0.00     0.163 C 
ATOM      3  N1  LIG L   1      43.938  32.641  79.318  1.00  0.00    -0.234 N 
ATOM      4  C3  LIG L   1      43.221  31.638  78.683  1.00  0.00     0.408 C 
ATOM      5  O1  LIG L   1      42.113  31.689  78.175  1.00  0.00    -0.226 OA
ATOM      6  O2  LIG L   1      43.962  30.482  78.660  1.00  0.00    -0.444 O 
ENDROOT
BRANCH    1    7
ATOM      7  C4  LIG L   1      46.299  29.908  78.963  1.00  0.00     0.150 C 
BRANCH    7    8
ATOM      8  N2  LIG L   1      46.186  29.606  77.546  1.00  0.00    -0.312 N 
ATOM      9  C5  LIG L   1      46.587  28.411  75.491  1.00  0.00     0.109 C 
ATOM     10  C6  LIG L   1      46.824  28.532  76.971  1.00  0.00     0.210 C 
ATOM     11  O3  LIG L   1      47.502  27.733  77.606  1.00  0.00    -0.276 OA
ATOM     12  H1  LIG L   1      45.633  30.191  76.979  1.00  0.00     0.149 HD
ENDBRANCH    7    8
ENDBRANCH    1    7
BRANCH    3   13
ATOM     13  C7  LIG L   1      43.540  33.988  79.519  1.00  0.00     0.042 A 
ATOM     14  C8  LIG L   1      43.757  34.977  78.558  1.00  0.00     0.025 A 
ATOM     15  C9  LIG L   1      42.901  34.376  80.701  1.00  0.00     0.063 A 
ATOM     16 C10  LIG L   1      43.343  36.304  78.769  1.00  0.00     0.028 A 
ATOM     17 C11  LIG L   1      42.493  35.701  80.904  1.00  0.00     0.146 A 
ATOM     18 C12  LIG L   1      42.684  36.705  79.941  1.00  0.00     0.066 A 
ATOM     19  F1  LIG L   1      41.880  35.968  82.069  1.00  0.00    -0.203 F 
BRANCH   18   20
ATOM     20  N3  LIG L   1      42.305  38.055  80.082  1.00  0.00    -0.323 N 
ATOM     21 C13  LIG L   1      40.858  38.362  80.143  1.00  0.00     0.133 C 
ATOM     22 C14  LIG L   1      43.020  38.979  79.165  1.00  0.00     0.133 C 
ATOM     23 C15  LIG L   1      40.655  39.843  80.506  1.00  0.00     0.178 C 
ATOM     24 C16  LIG L   1      42.715  40.439  79.541  1.00  0.00     0.178 C 
ATOM     25  O4  LIG L   1      41.304  40.705  79.557  1.00  0.00    -0.377 OA
ENDBRANCH   18   20
ENDBRANCH    3   13
TORSDOF 4
ENDMDL
MODEL 8
REMARK VINA RESULT:    -5.838      6.915      7.860
REMARK ITER + INTRA:           -7.829
REMARK INTER:                  -7.203
REMARK INTRA:                  -0.626
REMARK UNBOUND:                -0.625
REMARK Flexibility Score: inf
REMARK Active torsions [ 4 ] -> [ 4 ]
ROOT
ATOM      1  C1  LIG L   1      43.777  31.943  79.714  1.00  0.00     0.213 C 
ATOM      2  C2  LIG L   1      43.983  30.636  78.979  1.00  0.00     0.163 C 
ATOM      3  N1  LIG L   1      45.316  30.770  78.465  1.00  0.00    -0.234 N 
ATOM      4  C3  LIG L   1      45.665  32.113  78.459  1.00  0.00     0.408 C 
ATOM      5  O1  LIG L   1      46.658  32.647  77.993  1.00  0.00    -0.226 OA
ATOM      6  O2  LIG L   1      44.678  32.851  79.066  1.00  0.00    -0.444 O 
ENDROOT
BRANCH    1    7
ATOM      7  C4  LIG L   1      42.352  32.495  79.651  1.00  0.00     0.150 C 
BRANCH    7    8
ATOM      8  N2  LIG L   1      41.827  32.596  78.301  1.00  0.00    -0.312 N 
ATOM      9  C5  LIG L   1      40.985  33.685  76.321  1.00  0.00     0.109 C 
ATOM     10  C6  LIG L   1      41.532  33.806  77.716  1.00  0.00     0.210 C 
ATOM     11  O3  LIG L   1      41.720  34.884  78.268  1.00  0.00    -0.276 OA
ATOM     12  H1  LIG L   1      41.677  31.770  77.786  1.00  0.00     0.149 HD
ENDBRANCH    7    8
ENDBRANCH    1    7
BRANCH    3   13
ATOM     13  C7  LIG L   1      46.048  29.689  77.909  1.00  0.00     0.042 A 
ATOM     14  C8  LIG L   1      46.770  28.796  78.702  1.00  0.00     0.025 A 
ATOM     15  C9  LIG L   1      46.065  29.473  76.528  1.00  0.00     0.063 A 
ATOM     16 C10  LIG L   1      47.478  27.722  78.135  1.00  0.00     0.028 A 
ATOM     17 C11  LIG L   1      46.773  28.401  75.970  1.00  0.00     0.146 A 
ATOM     18 C12  LIG L   1      47.490  27.481  76.752  1.00  0.00     0.066 A 
ATOM     19  F1  LIG L   1      46.718  28.276  74.633  1.00  0.00    -0.203 F 
BRANCH   18   20
ATOM     20  N3  LIG L   1      48.227  26.388  76.257  1.00  0.00    -0.323 N 
ATOM     21 C13  LIG L   1      49.322  26.670  75.302  1.00  0.00     0.133 C 
ATOM     22 C14  LIG L   1      47.384  25.253  75.799  1.00  0.00     0.133 C 
ATOM     23 C15  LIG L   1      50.132  25.388  75.045  1.00  0.00     0.178 C 
ATOM     24 C16  LIG L   1      48.265  24.029  75.492  1.00  0.00     0.178 C 
ATOM     25  O4  LIG L   1      49.294  24.336  74.539  1.00  0.00    -0.377 OA
ENDBRANCH   18   20
ENDBRANCH    3   13
TORSDOF 4
ENDMDL
MODEL 9
REMARK VINA RESULT:    -5.814      7.756     11.511
REMARK ITER + INTRA:           -7.798
REMARK INTER:                  -7.132
REMARK INTRA:                  -0.666
REMARK UNBOUND:                -0.625
REMARK Flexibility Score: inf
REMARK Active torsions [ 4 ] -> [ 4 ]
ROOT
ATOM      1  C1  LIG L   1      42.703  33.067  78.015  1.00  0.00     0.213 C 
ATOM      2  C2  LIG L   1      42.142  33.726  79.255  1.00  0.00     0.163 C 
ATOM      3  N1  LIG L   1      42.949  34.905  79.380  1.00  0.00    -0.234 N 
ATOM      4  C3  LIG L   1      44.113  34.735  78.646  1.00  0.00     0.408 C 
ATOM      5  O1  LIG L   1      45.099  35.452  78.589  1.00  0.00    -0.226 OA
ATOM      6  O2  LIG L   1      44.049  33.558  77.940  1.00  0.00    -0.444 O 
ENDROOT
BRANCH    1    7
ATOM      7  C4  LIG L   1      42.711  31.538  78.048  1.00  0.00     0.150 C 
BRANCH    7    8
ATOM      8  N2  LIG L   1      43.954  30.974  78.544  1.00  0.00    -0.312 N 
ATOM      9  C5  LIG L   1      45.382  29.655  79.971  1.00  0.00     0.109 C 
ATOM     10  C6  LIG L   1      43.994  30.107  79.611  1.00  0.00     0.210 C 
ATOM     11  O3  LIG L   1      42.991  29.716  80.198  1.00  0.00    -0.276 OA
ATOM     12  H1  LIG L   1      44.798  31.222  78.101  1.00  0.00     0.149 HD
ENDBRANCH    7    8
ENDBRANCH    1    7
BRANCH    3   13
ATOM     13  C7  LIG L   1      42.636  35.973  80.261  1.00  0.00     0.042 A 
ATOM     14  C8  LIG L   1      41.963  37.117  79.831  1.00  0.00     0.025 A 
ATOM     15  C9  LIG L   1      42.991  35.911  81.612  1.00  0.00     0.063 A 
ATOM     16 C10  LIG L   1      41.650  38.159  80.722  1.00  0.00     0.028 A 
ATOM     17 C11  LIG L   1      42.676  36.953  82.493  1.00  0.00     0.146 A 
ATOM     18 C12  LIG L   1      41.982  38.104  82.084  1.00  0.00     0.066 A 
ATOM     19  F1  LIG L   1      43.052  36.792  83.773  1.00  0.00    -0.203 F 
BRANCH   18   20
ATOM     20  N3  LIG L   1      41.640  39.189  82.914  1.00  0.00    -0.323 N 
ATOM     21 C13  LIG L   1      40.385  39.093  83.694  1.00  0.00     0.133 C 
ATOM     22 C14  LIG L   1      41.770  40.514  82.255  1.00  0.00     0.133 C 
ATOM     23 C15  LIG L   1      40.295  40.266  84.684  1.00  0.00     0.178 C 
ATOM     24 C16  LIG L   1      41.599  41.640  83.289  1.00  0.00     0.178 C 
ATOM     25  O4  LIG L   1      40.357  41.529  84.001  1.00  0.00    -0.377 OA
ENDBRANCH   18   20
ENDBRANCH    3   13
TORSDOF 4
ENDMDL
MODEL 10
REMARK VINA RESULT:    -5.778      7.407      9.424
REMARK ITER + INTRA:           -7.754
REMARK INTER:                  -7.162
REMARK INTRA:                  -0.592
REMARK UNBOUND:                -0.625
REMARK Flexibility Score: inf
REMARK Active torsions [ 4 ] -> [ 4 ]
ROOT
ATOM      1  C1  LIG L   1      42.634  32.254  79.961  1.00  0.00     0.213 C 
ATOM      2  C2  LIG L   1      43.444  33.531  79.964  1.00  0.00     0.163 C 
ATOM      3  N1  LIG L   1      42.606  34.438  79.233  1.00  0.00    -0.234 N 
ATOM      4  C3  LIG L   1      41.690  33.708  78.490  1.00  0.00     0.408 C 
ATOM      5  O1  LIG L   1      40.890  34.100  77.657  1.00  0.00    -0.226 OA
ATOM      6  O2  LIG L   1      41.800  32.374  78.800  1.00  0.00    -0.444 O 
ENDROOT
BRANCH    1    7
ATOM      7  C4  LIG L   1      43.461  30.970  79.873  1.00  0.00     0.150 C 
BRANCH    7    8
ATOM      8  N2  LIG L   1      44.240  30.864  78.651  1.00  0.00    -0.312 N 
ATOM      9  C5  LIG L   1      46.051  30.153  77.226  1.00  0.00     0.109 C 
ATOM     10  C6  LIG L   1      45.391  30.115  78.577  1.00  0.00     0.210 C 
ATOM     11  O3  LIG L   1      45.827  29.455  79.514  1.00  0.00    -0.276 OA
ATOM     12  H1  LIG L   1      43.933  31.345  77.849  1.00  0.00     0.149 HD
ENDBRANCH    7    8
ENDBRANCH    1    7
BRANCH    3   13
ATOM     13  C7  LIG L   1      42.833  35.838  79.184  1.00  0.00     0.042 A 
ATOM     14  C8  LIG L   1      43.854  36.398  78.414  1.00  0.00     0.025 A 
ATOM     15  C9  LIG L   1      42.026  36.719  79.911  1.00  0.00     0.063 A 
ATOM     16 C10  LIG L   1      44.056  37.788  78.367  1.00  0.00     0.028 A 
ATOM     17 C11  LIG L   1      42.234  38.103  79.859  1.00  0.00     0.146 A 
ATOM     18 C12  LIG L   1      43.243  38.687  79.075  1.00  0.00     0.066 A 
ATOM     19  F1  LIG L   1      41.399  38.863  80.586  1.00  0.00    -0.203 F 
BRANCH   18   20
ATOM     20  N3  LIG L   1      43.510  40.067  78.982  1.00  0.00    -0.323 N 
ATOM     21 C13  LIG L   1      44.246  40.549  77.792  1.00  0.00     0.133 C 
ATOM     22 C14  LIG L   1      44.051  40.659  80.233  1.00  0.00     0.133 C 
ATOM     23 C15  LIG L   1      44.254  42.086  77.772  1.00  0.00     0.178 C 
ATOM     24 C16  LIG L   1      44.097  42.192  80.116  1.00  0.00     0.178 C 
ATOM     25  O4  LIG L   1      44.846  42.620  78.968  1.00  0.00    -0.377 OA
ENDBRANCH   18   20
ENDBRANCH    3   13
TORSDOF 4
ENDMDL
MODEL 11
REMARK VINA RESULT:    -5.771      7.791     10.808
REMARK ITER + INTRA:           -7.745
REMARK INTER:                  -7.162
REMARK INTRA:                  -0.583
REMARK UNBOUND:                -0.625
REMARK Flexibility Score: inf
REMARK Active torsions [ 4 ] -> [ 4 ]
ROOT
ATOM      1  C1  LIG L   1      48.667  26.813  77.556  1.00  0.00     0.213 C 
ATOM      2  C2  LIG L   1      47.227  27.275  77.506  1.00  0.00     0.163 C 
ATOM      3  N1  LIG L   1      47.241  28.440  78.344  1.00  0.00    -0.234 N 
ATOM      4  C3  LIG L   1      48.364  28.398  79.157  1.00  0.00     0.408 C 
ATOM      5  O1  LIG L   1      48.673  29.135  80.080  1.00  0.00    -0.226 OA
ATOM      6  O2  LIG L   1      49.156  27.334  78.800  1.00  0.00    -0.444 O 
ENDROOT
BRANCH    1    7
ATOM      7  C4  LIG L   1      48.854  25.295  77.522  1.00  0.00     0.150 C 
BRANCH    7    8
ATOM      8  N2  LIG L   1      47.729  24.584  76.940  1.00  0.00    -0.312 N 
ATOM      9  C5  LIG L   1      46.424  23.528  75.210  1.00  0.00     0.109 C 
ATOM     10  C6  LIG L   1      47.684  24.245  75.608  1.00  0.00     0.210 C 
ATOM     11  O3  LIG L   1      48.594  24.480  74.822  1.00  0.00    -0.276 OA
ATOM     12  H1  LIG L   1      46.972  24.337  77.520  1.00  0.00     0.149 HD
ENDBRANCH    7    8
ENDBRANCH    1    7
BRANCH    3   13
ATOM     13  C7  LIG L   1      46.165  29.363  78.410  1.00  0.00     0.042 A 
ATOM     14  C8  LIG L   1      45.975  30.352  77.443  1.00  0.00     0.025 A 
ATOM     15  C9  LIG L   1      45.241  29.310  79.458  1.00  0.00     0.063 A 
ATOM     16 C10  LIG L   1      44.896  31.249  77.517  1.00  0.00     0.028 A 
ATOM     17 C11  LIG L   1      44.168  30.208  79.525  1.00  0.00     0.146 A 
ATOM     18 C12  LIG L   1      43.949  31.197  78.551  1.00  0.00     0.066 A 
ATOM     19  F1  LIG L   1      43.331  30.067  80.566  1.00  0.00    -0.203 F 
BRANCH   18   20
ATOM     20  N3  LIG L   1      42.897  32.134  78.561  1.00  0.00    -0.323 N 
ATOM     21 C13  LIG L   1      42.024  32.204  77.368  1.00  0.00     0.133 C 
ATOM     22 C14  LIG L   1      43.304  33.488  79.018  1.00  0.00     0.133 C 
ATOM     23 C15  LIG L   1      40.826  33.125  77.653  1.00  0.00     0.178 C 
ATOM     24 C16  LIG L   1      42.063  34.376  79.214  1.00  0.00     0.178 C 
ATOM     25  O4  LIG L   1      41.259  34.443  78.026  1.00  0.00    -0.377 OA
ENDBRANCH   18   20
ENDBRANCH    3   13
TORSDOF 4
ENDMDL
MODEL 12
REMARK VINA RESULT:    -5.750      8.181     11.243
REMARK ITER + INTRA:           -7.719
REMARK INTER:                  -7.236
REMARK INTRA:                  -0.483
REMARK UNBOUND:                -0.625
REMARK Flexibility Score: inf
REMARK Active torsions [ 4 ] -> [ 4 ]
ROOT
ATOM      1  C1  LIG L   1      43.265  31.883  79.233  1.00  0.00     0.213 C 
ATOM      2  C2  LIG L   1      43.692  33.203  79.837  1.00  0.00     0.163 C 
ATOM      3  N1  LIG L   1      42.567  34.052  79.568  1.00  0.00    -0.234 N 
ATOM      4  C3  LIG L   1      41.813  33.492  78.548  1.00  0.00     0.408 C 
ATOM      5  O1  LIG L   1      40.854  33.960  77.955  1.00  0.00    -0.226 OA
ATOM      6  O2  LIG L   1      42.313  32.254  78.226  1.00  0.00    -0.444 O 
ENDROOT
BRANCH    1    7
ATOM      7  C4  LIG L   1      44.397  31.071  78.601  1.00  0.00     0.150 C 
BRANCH    7    8
ATOM      8  N2  LIG L   1      44.736  29.872  79.347  1.00  0.00    -0.312 N 
ATOM      9  C5  LIG L   1      45.917  28.513  80.951  1.00  0.00     0.109 C 
ATOM     10  C6  LIG L   1      45.714  29.859  80.314  1.00  0.00     0.210 C 
ATOM     11  O3  LIG L   1      46.345  30.856  80.646  1.00  0.00    -0.276 OA
ATOM     12  H1  LIG L   1      44.249  29.038  79.152  1.00  0.00     0.149 HD
ENDBRANCH    7    8
ENDBRANCH    1    7
BRANCH    3   13
ATOM     13  C7  LIG L   1      42.397  35.330  80.162  1.00  0.00     0.042 A 
ATOM     14  C8  LIG L   1      42.282  35.496  81.543  1.00  0.00     0.025 A 
ATOM     15  C9  LIG L   1      42.346  36.483  79.374  1.00  0.00     0.063 A 
ATOM     16 C10  LIG L   1      42.128  36.771  82.115  1.00  0.00     0.028 A 
ATOM     17 C11  LIG L   1      42.191  37.750  79.951  1.00  0.00     0.146 A 
ATOM     18 C12  LIG L   1      42.093  37.940  81.339  1.00  0.00     0.066 A 
ATOM     19  F1  LIG L   1      42.163  38.795  79.107  1.00  0.00    -0.203 F 
BRANCH   18   20
ATOM     20  N3  LIG L   1      41.930  39.182  81.984  1.00  0.00    -0.323 N 
ATOM     21 C13  LIG L   1      42.322  39.276  83.409  1.00  0.00     0.133 C 
ATOM     22 C14  LIG L   1      40.610  39.817  81.739  1.00  0.00     0.133 C 
ATOM     23 C15  LIG L   1      42.268  40.743  83.867  1.00  0.00     0.178 C 
ATOM     24 C16  LIG L   1      40.605  41.256  82.286  1.00  0.00     0.178 C 
ATOM     25  O4  LIG L   1      40.958  41.301  83.677  1.00  0.00    -0.377 OA
ENDBRANCH   18   20
ENDBRANCH    3   13
TORSDOF 4
ENDMDL
MODEL 13
REMARK VINA RESULT:    -5.745      7.491      9.909
REMARK ITER + INTRA:           -7.713
REMARK INTER:                  -7.099
REMARK INTRA:                  -0.614
REMARK UNBOUND:                -0.625
REMARK Flexibility Score: inf
REMARK Active torsions [ 4 ] -> [ 4 ]
ROOT
ATOM      1  C1  LIG L   1      42.611  32.095  80.009  1.00  0.00     0.213 C 
ATOM      2  C2  LIG L   1      43.371  33.390  80.195  1.00  0.00     0.163 C 
ATOM      3  N1  LIG L   1      42.538  34.344  79.519  1.00  0.00    -0.234 N 
ATOM      4  C3  LIG L   1      41.692  33.669  78.651  1.00  0.00     0.408 C 
ATOM      5  O1  LIG L   1      40.922  34.123  77.820  1.00  0.00    -0.226 OA
ATOM      6  O2  LIG L   1      41.836  32.314  78.823  1.00  0.00    -0.444 O 
ENDROOT
BRANCH    1    7
ATOM      7  C4  LIG L   1      43.491  30.856  79.831  1.00  0.00     0.150 C 
BRANCH    7    8
ATOM      8  N2  LIG L   1      44.261  30.862  78.600  1.00  0.00    -0.312 N 
ATOM      9  C5  LIG L   1      46.052  30.273  77.097  1.00  0.00     0.109 C 
ATOM     10  C6  LIG L   1      45.400  30.108  78.442  1.00  0.00     0.210 C 
ATOM     11  O3  LIG L   1      45.832  29.352  79.304  1.00  0.00    -0.276 OA
ATOM     12  H1  LIG L   1      43.956  31.426  77.852  1.00  0.00     0.149 HD
ENDBRANCH    7    8
ENDBRANCH    1    7
BRANCH    3   13
ATOM     13  C7  LIG L   1      42.714  35.748  79.632  1.00  0.00     0.042 A 
ATOM     14  C8  LIG L   1      43.507  36.471  78.740  1.00  0.00     0.025 A 
ATOM     15  C9  LIG L   1      42.083  36.466  80.653  1.00  0.00     0.063 A 
ATOM     16 C10  LIG L   1      43.658  37.863  78.860  1.00  0.00     0.028 A 
ATOM     17 C11  LIG L   1      42.240  37.853  80.766  1.00  0.00     0.146 A 
ATOM     18 C12  LIG L   1      43.017  38.601  79.867  1.00  0.00     0.066 A 
ATOM     19  F1  LIG L   1      41.584  38.451  81.775  1.00  0.00    -0.203 F 
BRANCH   18   20
ATOM     20  N3  LIG L   1      43.222  39.994  79.927  1.00  0.00    -0.323 N 
ATOM     21 C13  LIG L   1      42.102  40.874  79.522  1.00  0.00     0.133 C 
ATOM     22 C14  LIG L   1      44.507  40.438  79.328  1.00  0.00     0.133 C 
ATOM     23 C15  LIG L   1      42.443  42.336  79.853  1.00  0.00     0.178 C 
ATOM     24 C16  LIG L   1      44.749  41.926  79.638  1.00  0.00     0.178 C 
ATOM     25  O4  LIG L   1      43.655  42.749  79.202  1.00  0.00    -0.377 OA
ENDBRANCH   18   20
ENDBRANCH    3   13
TORSDOF 4
ENDMDL
MODEL 14
REMARK VINA RESULT:    -5.721      1.086      1.457
REMARK ITER + INTRA:           -7.683
REMARK INTER:                  -7.130
REMARK INTRA:                  -0.554
REMARK UNBOUND:                -0.625
REMARK Flexibility Score: inf
REMARK Active torsions [ 4 ] -> [ 4 ]
ROOT
ATOM      1  C1  LIG L   1      44.935  36.173  76.861  1.00  0.00     0.213 C 
ATOM      2  C2  LIG L   1      45.354  35.245  75.742  1.00  0.00     0.163 C 
ATOM      3  N1  LIG L   1      45.826  36.155  74.738  1.00  0.00    -0.234 N 
ATOM      4  C3  LIG L   1      45.317  37.418  74.998  1.00  0.00     0.408 C 
ATOM      5  O1  LIG L   1      45.388  38.430  74.320  1.00  0.00    -0.226 OA
ATOM      6  O2  LIG L   1      44.645  37.410  76.196  1.00  0.00    -0.444 O 
ENDROOT
BRANCH    1    7
ATOM      7  C4  LIG L   1      43.711  35.711  77.653  1.00  0.00     0.150 C 
BRANCH    7    8
ATOM      8  N2  LIG L   1      42.612  35.265  76.815  1.00  0.00    -0.312 N 
ATOM      9  C5  LIG L   1      40.906  33.769  75.999  1.00  0.00     0.109 C 
ATOM     10  C6  LIG L   1      42.011  34.039  76.981  1.00  0.00     0.210 C 
ATOM     11  O3  LIG L   1      42.328  33.248  77.862  1.00  0.00    -0.276 OA
ATOM     12  H1  LIG L   1      42.285  35.862  76.103  1.00  0.00     0.149 HD
ENDBRANCH    7    8
ENDBRANCH    1    7
BRANCH    3   13
ATOM     13  C7  LIG L   1      46.552  35.739  73.592  1.00  0.00     0.042 A 
ATOM     14  C8  LIG L   1      46.016  34.857  72.652  1.00  0.00     0.025 A 
ATOM     15  C9  LIG L   1      47.848  36.210  73.357  1.00  0.00     0.063 A 
ATOM     16 C10  LIG L   1      46.745  34.467  71.516  1.00  0.00     0.028 A 
ATOM     17 C11  LIG L   1      48.569  35.816  72.223  1.00  0.00     0.146 A 
ATOM     18 C12  LIG L   1      48.039  34.946  71.256  1.00  0.00     0.066 A 
ATOM     19  F1  LIG L   1      49.801  36.333  72.085  1.00  0.00    -0.203 F 
BRANCH   18   20
ATOM     20  N3  LIG L   1      48.709  34.505  70.099  1.00  0.00    -0.323 N 
ATOM     21 C13  LIG L   1      50.013  33.824  70.273  1.00  0.00     0.133 C 
ATOM     22 C14  LIG L   1      48.767  35.519  69.014  1.00  0.00     0.133 C 
ATOM     23 C15  LIG L   1      50.478  33.239  68.930  1.00  0.00     0.178 C 
ATOM     24 C16  LIG L   1      49.308  34.883  67.722  1.00  0.00     0.178 C 
ATOM     25  O4  LIG L   1      50.586  34.261  67.926  1.00  0.00    -0.377 OA
ENDBRANCH   18   20
ENDBRANCH    3   13
TORSDOF 4
ENDMDL
MODEL 15
REMARK VINA RESULT:    -5.710      7.256     10.595
REMARK ITER + INTRA:           -7.670
REMARK INTER:                  -7.122
REMARK INTRA:                  -0.549
REMARK UNBOUND:                -0.625
REMARK Flexibility Score: inf
REMARK Active torsions [ 4 ] -> [ 4 ]
ROOT
ATOM      1  C1  LIG L   1      46.405  30.066  77.647  1.00  0.00     0.213 C 
ATOM      2  C2  LIG L   1      45.541  31.300  77.513  1.00  0.00     0.163 C 
ATOM      3  N1  LIG L   1      44.916  31.389  78.802  1.00  0.00    -0.234 N 
ATOM      4  C3  LIG L   1      44.997  30.155  79.429  1.00  0.00     0.408 C 
ATOM      5  O1  LIG L   1      44.488  29.789  80.476  1.00  0.00    -0.226 OA
ATOM      6  O2  LIG L   1      45.759  29.298  78.672  1.00  0.00    -0.444 O 
ENDROOT
BRANCH    1    7
ATOM      7  C4  LIG L   1      46.528  29.228  76.373  1.00  0.00     0.150 C 
BRANCH    7    8
ATOM      8  N2  LIG L   1      46.888  27.843  76.621  1.00  0.00    -0.312 N 
ATOM      9  C5  LIG L   1      47.284  25.523  76.098  1.00  0.00     0.109 C 
ATOM     10  C6  LIG L   1      46.899  26.897  75.623  1.00  0.00     0.210 C 
ATOM     11  O3  LIG L   1      46.645  27.151  74.451  1.00  0.00    -0.276 OA
ATOM     12  H1  LIG L   1      47.131  27.572  77.536  1.00  0.00     0.149 HD
ENDBRANCH    7    8
ENDBRANCH    1    7
BRANCH    3   13
ATOM     13  C7  LIG L   1      44.199  32.532  79.241  1.00  0.00     0.042 A 
ATOM     14  C8  LIG L   1      44.708  33.403  80.206  1.00  0.00     0.025 A 
ATOM     15  C9  LIG L   1      42.941  32.834  78.710  1.00  0.00     0.063 A 
ATOM     16 C10  LIG L   1      43.989  34.537  80.619  1.00  0.00     0.028 A 
ATOM     17 C11  LIG L   1      42.230  33.966  79.127  1.00  0.00     0.146 A 
ATOM     18 C12  LIG L   1      42.734  34.864  80.082  1.00  0.00     0.066 A 
ATOM     19  F1  LIG L   1      41.035  34.172  78.549  1.00  0.00    -0.203 F 
BRANCH   18   20
ATOM     20  N3  LIG L   1      42.071  36.016  80.550  1.00  0.00    -0.323 N 
ATOM     21 C13  LIG L   1      42.112  37.229  79.703  1.00  0.00     0.133 C 
ATOM     22 C14  LIG L   1      42.356  36.336  81.973  1.00  0.00     0.133 C 
ATOM     23 C15  LIG L   1      41.168  38.297  80.277  1.00  0.00     0.178 C 
ATOM     24 C16  LIG L   1      41.424  37.460  82.459  1.00  0.00     0.178 C 
ATOM     25  O4  LIG L   1      41.517  38.629  81.630  1.00  0.00    -0.377 OA
ENDBRANCH   18   20
ENDBRANCH    3   13
TORSDOF 4
ENDMDL
MODEL 16
REMARK VINA RESULT:    -5.661      7.245      8.929
REMARK ITER + INTRA:           -7.609
REMARK INTER:                  -6.980
REMARK INTRA:                  -0.630
REMARK UNBOUND:                -0.625
REMARK Flexibility Score: inf
REMARK Active torsions [ 4 ] -> [ 4 ]
ROOT
ATOM      1  C1  LIG L   1      42.329  32.326  80.197  1.00  0.00     0.213 C 
ATOM      2  C2  LIG L   1      43.295  33.485  80.083  1.00  0.00     0.163 C 
ATOM      3  N1  LIG L   1      42.610  34.382  79.197  1.00  0.00    -0.234 N 
ATOM      4  C3  LIG L   1      41.638  33.676  78.503  1.00  0.00     0.408 C 
ATOM      5  O1  LIG L   1      40.928  34.048  77.583  1.00  0.00    -0.226 OA
ATOM      6  O2  LIG L   1      41.564  32.392  78.986  1.00  0.00    -0.444 O 
ENDROOT
BRANCH    1    7
ATOM      7  C4  LIG L   1      42.988  30.951  80.319  1.00  0.00     0.150 C 
BRANCH    7    8
ATOM      8  N2  LIG L   1      44.064  30.737  79.367  1.00  0.00    -0.312 N 
ATOM      9  C5  LIG L   1      46.049  29.719  78.450  1.00  0.00     0.109 C 
ATOM     10  C6  LIG L   1      45.017  29.761  79.543  1.00  0.00     0.210 C 
ATOM     11  O3  LIG L   1      45.014  28.980  80.487  1.00  0.00    -0.276 OA
ATOM     12  H1  LIG L   1      44.113  31.310  78.568  1.00  0.00     0.149 HD
ENDBRANCH    7    8
ENDBRANCH    1    7
BRANCH    3   13
ATOM     13  C7  LIG L   1      43.015  35.725  78.983  1.00  0.00     0.042 A 
ATOM     14  C8  LIG L   1      42.533  36.779  79.760  1.00  0.00     0.025 A 
ATOM     15  C9  LIG L   1      43.931  36.042  77.975  1.00  0.00     0.063 A 
ATOM     16 C10  LIG L   1      42.956  38.101  79.543  1.00  0.00     0.028 A 
ATOM     17 C11  LIG L   1      44.348  37.363  77.764  1.00  0.00     0.146 A 
ATOM     18 C12  LIG L   1      43.889  38.434  78.548  1.00  0.00     0.066 A 
ATOM     19  F1  LIG L   1      45.238  37.561  76.777  1.00  0.00    -0.203 F 
BRANCH   18   20
ATOM     20  N3  LIG L   1      44.261  39.783  78.386  1.00  0.00    -0.323 N 
ATOM     21 C13  LIG L   1      45.612  40.185  78.837  1.00  0.00     0.133 C 
ATOM     22 C14  LIG L   1      43.227  40.750  78.837  1.00  0.00     0.133 C 
ATOM     23 C15  LIG L   1      45.903  41.627  78.388  1.00  0.00     0.178 C 
ATOM     24 C16  LIG L   1      43.617  42.177  78.417  1.00  0.00     0.178 C 
ATOM     25  O4  LIG L   1      44.920  42.540  78.900  1.00  0.00    -0.377 OA
ENDBRANCH   18   20
ENDBRANCH    3   13
TORSDOF 4
ENDMDL
MODEL 17
REMARK VINA RESULT:    -5.658      7.073      8.156
REMARK ITER + INTRA:           -7.606
REMARK INTER:                  -7.359
REMARK INTRA:                  -0.247
REMARK UNBOUND:                -0.625
REMARK Flexibility Score: inf
REMARK Active torsions [ 4 ] -> [ 4 ]
ROOT
ATOM      1  C1  LIG L   1      42.418  33.799  78.559  1.00  0.00     0.213 C 
ATOM      2  C2  LIG L   1      43.780  33.247  78.199  1.00  0.00     0.163 C 
ATOM      3  N1  LIG L   1      43.781  31.964  78.843  1.00  0.00    -0.234 N 
ATOM      4  C3  LIG L   1      42.805  31.953  79.828  1.00  0.00     0.408 C 
ATOM      5  O1  LIG L   1      42.569  31.100  80.668  1.00  0.00    -0.226 OA
ATOM      6  O2  LIG L   1      42.077  33.117  79.773  1.00  0.00    -0.444 O 
ENDROOT
BRANCH    1    7
ATOM      7  C4  LIG L   1      42.379  35.311  78.786  1.00  0.00     0.150 C 
BRANCH    7    8
ATOM      8  N2  LIG L   1      42.081  35.685  80.157  1.00  0.00    -0.312 N 
ATOM      9  C5  LIG L   1      41.750  37.160  82.036  1.00  0.00     0.109 C 
ATOM     10  C6  LIG L   1      42.065  36.995  80.575  1.00  0.00     0.210 C 
ATOM     11  O3  LIG L   1      42.263  37.944  79.824  1.00  0.00    -0.276 OA
ATOM     12  H1  LIG L   1      41.884  34.975  80.811  1.00  0.00     0.149 HD
ENDBRANCH    7    8
ENDBRANCH    1    7
BRANCH    3   13
ATOM     13  C7  LIG L   1      44.757  30.966  78.587  1.00  0.00     0.042 A 
ATOM     14  C8  LIG L   1      45.283  30.166  79.603  1.00  0.00     0.025 A 
ATOM     15  C9  LIG L   1      45.227  30.743  77.290  1.00  0.00     0.063 A 
ATOM     16 C10  LIG L   1      46.240  29.174  79.329  1.00  0.00     0.028 A 
ATOM     17 C11  LIG L   1      46.181  29.752  77.025  1.00  0.00     0.146 A 
ATOM     18 C12  LIG L   1      46.708  28.924  78.030  1.00  0.00     0.066 A 
ATOM     19  F1  LIG L   1      46.560  29.611  75.744  1.00  0.00    -0.203 F 
BRANCH   18   20
ATOM     20  N3  LIG L   1      47.672  27.915  77.835  1.00  0.00    -0.323 N 
ATOM     21 C13  LIG L   1      49.038  28.332  77.444  1.00  0.00     0.133 C 
ATOM     22 C14  LIG L   1      47.193  26.778  77.006  1.00  0.00     0.133 C 
ATOM     23 C15  LIG L   1      49.984  27.121  77.485  1.00  0.00     0.178 C 
ATOM     24 C16  LIG L   1      48.219  25.632  77.036  1.00  0.00     0.178 C 
ATOM     25  O4  LIG L   1      49.522  26.070  76.621  1.00  0.00    -0.377 OA
ENDBRANCH   18   20
ENDBRANCH    3   13
TORSDOF 4
ENDMDL
MODEL 18
REMARK VINA RESULT:    -5.654      6.570     10.554
REMARK ITER + INTRA:           -7.601
REMARK INTER:                  -7.185
REMARK INTRA:                  -0.416
REMARK UNBOUND:                -0.625
REMARK Flexibility Score: inf
REMARK Active torsions [ 4 ] -> [ 4 ]
ROOT
ATOM      1  C1  LIG L   1      45.698  31.379  78.077  1.00  0.00     0.213 C 
ATOM      2  C2  LIG L   1      45.505  32.868  78.264  1.00  0.00     0.163 C 
ATOM      3  N1  LIG L   1      44.150  32.954  78.729  1.00  0.00    -0.234 N 
ATOM      4  C3  LIG L   1      43.484  31.782  78.400  1.00  0.00     0.408 C 
ATOM      5  O1  LIG L   1      42.300  31.513  78.515  1.00  0.00    -0.226 OA
ATOM      6  O2  LIG L   1      44.370  30.881  77.863  1.00  0.00    -0.444 O 
ENDROOT
BRANCH    1    7
ATOM      7  C4  LIG L   1      46.593  30.991  76.899  1.00  0.00     0.150 C 
BRANCH    7    8
ATOM      8  N2  LIG L   1      46.347  29.650  76.399  1.00  0.00    -0.312 N 
ATOM      9  C5  LIG L   1      46.690  27.688  75.040  1.00  0.00     0.109 C 
ATOM     10  C6  LIG L   1      47.126  29.075  75.423  1.00  0.00     0.210 C 
ATOM     11  O3  LIG L   1      48.102  29.628  74.928  1.00  0.00    -0.276 OA
ATOM     12  H1  LIG L   1      45.595  29.135  76.773  1.00  0.00     0.149 HD
ENDBRANCH    7    8
ENDBRANCH    1    7
BRANCH    3   13
ATOM     13  C7  LIG L   1      43.589  34.138  79.276  1.00  0.00     0.042 A 
ATOM     14  C8  LIG L   1      42.899  34.140  80.489  1.00  0.00     0.025 A 
ATOM     15  C9  LIG L   1      43.716  35.362  78.612  1.00  0.00     0.063 A 
ATOM     16 C10  LIG L   1      42.363  35.324  81.023  1.00  0.00     0.028 A 
ATOM     17 C11  LIG L   1      43.178  36.537  79.150  1.00  0.00     0.146 A 
ATOM     18 C12  LIG L   1      42.498  36.564  80.379  1.00  0.00     0.066 A 
ATOM     19  F1  LIG L   1      43.363  37.662  78.439  1.00  0.00    -0.203 F 
BRANCH   18   20
ATOM     20  N3  LIG L   1      41.928  37.707  80.973  1.00  0.00    -0.323 N 
ATOM     21 C13  LIG L   1      41.595  37.642  82.414  1.00  0.00     0.133 C 
ATOM     22 C14  LIG L   1      40.819  38.303  80.184  1.00  0.00     0.133 C 
ATOM     23 C15  LIG L   1      41.185  39.036  82.916  1.00  0.00     0.178 C 
ATOM     24 C16  LIG L   1      40.413  39.661  80.784  1.00  0.00     0.178 C 
ATOM     25  O4  LIG L   1      40.068  39.550  82.174  1.00  0.00    -0.377 OA
ENDBRANCH   18   20
ENDBRANCH    3   13
TORSDOF 4
ENDMDL
MODEL 19
REMARK VINA RESULT:    -5.645      1.638      2.074
REMARK ITER + INTRA:           -7.590
REMARK INTER:                  -7.185
REMARK INTRA:                  -0.405
REMARK UNBOUND:                -0.625
REMARK Flexibility Score: inf
REMARK Active torsions [ 4 ] -> [ 4 ]
ROOT
ATOM      1  C1  LIG L   1      44.489  36.484  77.825  1.00  0.00     0.213 C 
ATOM      2  C2  LIG L   1      44.981  35.370  76.927  1.00  0.00     0.163 C 
ATOM      3  N1  LIG L   1      45.555  36.085  75.823  1.00  0.00    -0.234 N 
ATOM      4  C3  LIG L   1      45.052  37.378  75.813  1.00  0.00     0.408 C 
ATOM      5  O1  LIG L   1      45.201  38.254  74.976  1.00  0.00    -0.226 OA
ATOM      6  O2  LIG L   1      44.282  37.585  76.931  1.00  0.00    -0.444 O 
ENDROOT
BRANCH    1    7
ATOM      7  C4  LIG L   1      43.193  36.176  78.577  1.00  0.00     0.150 C 
BRANCH    7    8
ATOM      8  N2  LIG L   1      42.377  35.160  77.936  1.00  0.00    -0.312 N 
ATOM      9  C5  LIG L   1      41.120  33.110  77.752  1.00  0.00     0.109 C 
ATOM     10  C6  LIG L   1      41.936  34.041  78.604  1.00  0.00     0.210 C 
ATOM     11  O3  LIG L   1      42.164  33.833  79.790  1.00  0.00    -0.276 OA
ATOM     12  H1  LIG L   1      42.131  35.276  76.989  1.00  0.00     0.149 HD
ENDBRANCH    7    8
ENDBRANCH    1    7
BRANCH    3   13
ATOM     13  C7  LIG L   1      46.366  35.469  74.835  1.00  0.00     0.042 A 
ATOM     14  C8  LIG L   1      47.717  35.192  75.052  1.00  0.00     0.025 A 
ATOM     15  C9  LIG L   1      45.831  35.108  73.595  1.00  0.00     0.063 A 
ATOM     16 C10  LIG L   1      48.502  34.569  74.066  1.00  0.00     0.028 A 
ATOM     17 C11  LIG L   1      46.620  34.488  72.618  1.00  0.00     0.146 A 
ATOM     18 C12  LIG L   1      47.976  34.183  72.824  1.00  0.00     0.066 A 
ATOM     19  F1  LIG L   1      46.009  34.172  71.464  1.00  0.00    -0.203 F 
BRANCH   18   20
ATOM     20  N3  LIG L   1      48.826  33.568  71.884  1.00  0.00    -0.323 N 
ATOM     21 C13  LIG L   1      48.719  33.997  70.471  1.00  0.00     0.133 C 
ATOM     22 C14  LIG L   1      48.880  32.088  72.000  1.00  0.00     0.133 C 
ATOM     23 C15  LIG L   1      49.859  33.373  69.649  1.00  0.00     0.178 C 
ATOM     24 C16  LIG L   1      49.993  31.526  71.099  1.00  0.00     0.178 C 
ATOM     25  O4  LIG L   1      49.836  31.939  69.733  1.00  0.00    -0.377 OA
ENDBRANCH   18   20
ENDBRANCH    3   13
TORSDOF 4
ENDMDL
MODEL 20
REMARK VINA RESULT:    -5.645      6.973      7.809
REMARK ITER + INTRA:           -7.589
REMARK INTER:                  -7.182
REMARK INTRA:                  -0.408
REMARK UNBOUND:                -0.625
REMARK Flexibility Score: inf
REMARK Active torsions [ 4 ] -> [ 4 ]
ROOT
ATOM      1  C1  LIG L   1      42.896  34.415  79.790  1.00  0.00     0.213 C 
ATOM      2  C2  LIG L   1      44.171  33.788  79.270  1.00  0.00     0.163 C 
ATOM      3  N1  LIG L   1      43.884  32.384  79.341  1.00  0.00    -0.234 N 
ATOM      4  C3  LIG L   1      42.827  32.183  80.216  1.00  0.00     0.408 C 
ATOM      5  O1  LIG L   1      42.364  31.134  80.635  1.00  0.00    -0.226 OA
ATOM      6  O2  LIG L   1      42.321  33.395  80.618  1.00  0.00    -0.444 O 
ENDROOT
BRANCH    1    7
ATOM      7  C4  LIG L   1      43.097  35.693  80.606  1.00  0.00     0.150 C 
BRANCH    7    8
ATOM      8  N2  LIG L   1      41.934  36.563  80.618  1.00  0.00    -0.312 N 
ATOM      9  C5  LIG L   1      40.615  38.515  80.103  1.00  0.00     0.109 C 
ATOM     10  C6  LIG L   1      41.908  37.764  79.947  1.00  0.00     0.210 C 
ATOM     11  O3  LIG L   1      42.840  38.174  79.265  1.00  0.00    -0.276 OA
ATOM     12  H1  LIG L   1      41.137  36.283  81.123  1.00  0.00     0.149 HD
ENDBRANCH    7    8
ENDBRANCH    1    7
BRANCH    3   13
ATOM     13  C7  LIG L   1      44.694  31.392  78.728  1.00  0.00     0.042 A 
ATOM     14  C8  LIG L   1      44.936  31.378  77.353  1.00  0.00     0.025 A 
ATOM     15  C9  LIG L   1      45.291  30.384  79.492  1.00  0.00     0.063 A 
ATOM     16 C10  LIG L   1      45.751  30.396  76.765  1.00  0.00     0.028 A 
ATOM     17 C11  LIG L   1      46.101  29.409  78.898  1.00  0.00     0.146 A 
ATOM     18 C12  LIG L   1      46.373  29.389  77.520  1.00  0.00     0.066 A 
ATOM     19  F1  LIG L   1      46.636  28.490  79.720  1.00  0.00    -0.203 F 
BRANCH   18   20
ATOM     20  N3  LIG L   1      47.172  28.436  76.859  1.00  0.00    -0.323 N 
ATOM     21 C13  LIG L   1      48.641  28.617  76.902  1.00  0.00     0.133 C 
ATOM     22 C14  LIG L   1      46.704  28.108  75.487  1.00  0.00     0.133 C 
ATOM     23 C15  LIG L   1      49.335  27.378  76.312  1.00  0.00     0.178 C 
ATOM     24 C16  LIG L   1      47.490  26.907  74.933  1.00  0.00     0.178 C 
ATOM     25  O4  LIG L   1      48.907  27.134  74.962  1.00  0.00    -0.377 OA
ENDBRANCH   18   20
ENDBRANCH    3   13
TORSDOF 4
ENDMDL
