MODEL 1
REMARK VINA RESULT:    -7.722      0.000      0.000
REMARK ITER + INTRA:           -9.501
REMARK INTER:                  -8.815
REMARK INTRA:                  -0.687
REMARK UNBOUND:                 0.027
REMARK Flexibility Score: inf
REMARK Active torsions [ 4 ] -> [ 4 ]
ROOT
ATOM      1  C1  LIG L   1      37.623  42.069  84.707  1.00  0.00     0.213 C 
ATOM      2  C2  LIG L   1      37.851  41.020  83.641  1.00  0.00     0.163 C 
ATOM      3  N1  LIG L   1      39.257  41.109  83.383  1.00  0.00    -0.234 N 
ATOM      4  C3  LIG L   1      39.744  42.298  83.910  1.00  0.00     0.408 C 
ATOM      5  O1  LIG L   1      40.867  42.767  83.829  1.00  0.00    -0.226 OA
ATOM      6  O2  LIG L   1      38.744  42.950  84.586  1.00  0.00    -0.444 O 
ENDROOT
BRANCH    1    7
ATOM      7  C4  LIG L   1      36.299  42.812  84.515  1.00  0.00     0.150 C 
BRANCH    7    8
ATOM      8  N2  LIG L   1      35.148  41.933  84.642  1.00  0.00    -0.312 N 
ATOM      9  C5  LIG L   1      33.223  40.956  85.736  1.00  0.00     0.109 C 
ATOM     10  C6  LIG L   1      34.307  41.999  85.731  1.00  0.00     0.210 C 
ATOM     11  O3  LIG L   1      34.396  42.847  86.612  1.00  0.00    -0.276 OA
ATOM     12  H1  LIG L   1      34.965  41.275  83.933  1.00  0.00     0.149 HD
ENDBRANCH    7    8
ENDBRANCH    1    7
BRANCH    3   13
ATOM     13  C7  LIG L   1      39.958  40.175  82.574  1.00  0.00     0.042 A 
ATOM     14  C8  LIG L   1      40.835  39.232  83.114  1.00  0.00     0.025 A 
ATOM     15  C9  LIG L   1      39.792  40.169  81.185  1.00  0.00     0.063 A 
ATOM     16 C10  LIG L   1      41.520  38.317  82.296  1.00  0.00     0.028 A 
ATOM     17 C11  LIG L   1      40.477  39.251  80.376  1.00  0.00     0.146 A 
ATOM     18 C12  LIG L   1      41.354  38.292  80.905  1.00  0.00     0.066 A 
ATOM     19  F1  LIG L   1      40.233  39.315  79.057  1.00  0.00    -0.203 F 
BRANCH   18   20
ATOM     20  N3  LIG L   1      42.087  37.355  80.154  1.00  0.00    -0.323 N 
ATOM     21 C13  LIG L   1      43.227  37.948  79.420  1.00  0.00     0.133 C 
ATOM     22 C14  LIG L   1      42.481  36.090  80.819  1.00  0.00     0.142 C 
ATOM     23 C15  LIG L   1      43.782  36.931  78.413  1.00  0.00     0.179 C 
ATOM     24 C16  LIG L   1      43.034  35.077  79.774  1.00  0.00     0.108 C 
ATOM     25  O4  LIG L   1      44.117  35.671  79.014  1.00  0.00    -0.368 OA
ATOM     26 C17  LIG L   1      41.896  34.569  78.851  1.00  0.00     0.041 C 
ATOM     27 C18  LIG L   1      43.663  33.875  80.525  1.00  0.00     0.196 C 
ATOM     28 C19  LIG L   1      42.169  33.140  78.394  1.00  0.00     0.031 C 
ATOM     29  O5  LIG L   1      42.690  32.865  80.791  1.00  0.00    -0.377 OA
ATOM     30 C20  LIG L   1      42.275  32.200  79.594  1.00  0.00     0.160 C 
ENDBRANCH   18   20
ENDBRANCH    3   13
TORSDOF 4
ENDMDL
MODEL 2
REMARK VINA RESULT:    -7.354      2.849      9.928
REMARK ITER + INTRA:           -9.047
REMARK INTER:                  -8.643
REMARK INTRA:                  -0.404
REMARK UNBOUND:                 0.027
REMARK Flexibility Score: inf
REMARK Active torsions [ 4 ] -> [ 4 ]
ROOT
ATOM      1  C1  LIG L   1      42.406  33.134  77.464  1.00  0.00     0.213 C 
ATOM      2  C2  LIG L   1      41.961  33.644  78.816  1.00  0.00     0.163 C 
ATOM      3  N1  LIG L   1      42.665  34.885  78.952  1.00  0.00    -0.234 N 
ATOM      4  C3  LIG L   1      43.691  34.931  78.015  1.00  0.00     0.408 C 
ATOM      5  O1  LIG L   1      44.551  35.783  77.866  1.00  0.00    -0.226 OA
ATOM      6  O2  LIG L   1      43.633  33.824  77.208  1.00  0.00    -0.444 O 
ENDROOT
BRANCH    1    7
ATOM      7  C4  LIG L   1      42.601  31.616  77.454  1.00  0.00     0.150 C 
BRANCH    7    8
ATOM      8  N2  LIG L   1      43.899  31.221  77.978  1.00  0.00    -0.312 N 
ATOM      9  C5  LIG L   1      45.436  30.251  79.576  1.00  0.00     0.109 C 
ATOM     10  C6  LIG L   1      44.016  30.491  79.140  1.00  0.00     0.210 C 
ATOM     11  O3  LIG L   1      43.061  30.039  79.761  1.00  0.00    -0.276 OA
ATOM     12  H1  LIG L   1      44.714  31.482  77.490  1.00  0.00     0.149 HD
ENDBRANCH    7    8
ENDBRANCH    1    7
BRANCH    3   13
ATOM     13  C7  LIG L   1      42.412  35.811  79.997  1.00  0.00     0.042 A 
ATOM     14  C8  LIG L   1      42.712  35.528  81.332  1.00  0.00     0.025 A 
ATOM     15  C9  LIG L   1      41.843  37.059  79.724  1.00  0.00     0.063 A 
ATOM     16 C10  LIG L   1      42.453  36.459  82.353  1.00  0.00     0.028 A 
ATOM     17 C11  LIG L   1      41.590  37.983  80.747  1.00  0.00     0.146 A 
ATOM     18 C12  LIG L   1      41.894  37.717  82.091  1.00  0.00     0.066 A 
ATOM     19  F1  LIG L   1      41.060  39.160  80.376  1.00  0.00    -0.203 F 
BRANCH   18   20
ATOM     20  N3  LIG L   1      41.651  38.587  83.170  1.00  0.00    -0.323 N 
ATOM     21 C13  LIG L   1      42.496  38.310  84.354  1.00  0.00     0.133 C 
ATOM     22 C14  LIG L   1      41.589  40.040  82.887  1.00  0.00     0.142 C 
ATOM     23 C15  LIG L   1      41.969  39.098  85.561  1.00  0.00     0.179 C 
ATOM     24 C16  LIG L   1      41.048  40.812  84.127  1.00  0.00     0.108 C 
ATOM     25  O4  LIG L   1      41.839  40.503  85.302  1.00  0.00    -0.368 OA
ATOM     26 C17  LIG L   1      39.544  40.503  84.348  1.00  0.00     0.041 C 
ATOM     27 C18  LIG L   1      41.230  42.334  83.889  1.00  0.00     0.196 C 
ATOM     28 C19  LIG L   1      38.832  41.701  84.966  1.00  0.00     0.031 C 
ATOM     29  O5  LIG L   1      40.103  42.891  83.217  1.00  0.00    -0.377 OA
ATOM     30 C20  LIG L   1      38.946  42.924  84.058  1.00  0.00     0.160 C 
ENDBRANCH   18   20
ENDBRANCH    3   13
TORSDOF 4
ENDMDL
MODEL 3
REMARK VINA RESULT:    -7.305      3.916     11.342
REMARK ITER + INTRA:           -8.986
REMARK INTER:                  -8.397
REMARK INTRA:                  -0.590
REMARK UNBOUND:                 0.027
REMARK Flexibility Score: inf
REMARK Active torsions [ 4 ] -> [ 4 ]
ROOT
ATOM      1  C1  LIG L   1      45.414  30.244  79.555  1.00  0.00     0.213 C 
ATOM      2  C2  LIG L   1      45.597  31.743  79.633  1.00  0.00     0.163 C 
ATOM      3  N1  LIG L   1      44.285  32.252  79.367  1.00  0.00    -0.234 N 
ATOM      4  C3  LIG L   1      43.508  31.243  78.813  1.00  0.00     0.408 C 
ATOM      5  O1  LIG L   1      42.367  31.304  78.385  1.00  0.00    -0.226 OA
ATOM      6  O2  LIG L   1      44.217  30.069  78.791  1.00  0.00    -0.444 O 
ENDROOT
BRANCH    1    7
ATOM      7  C4  LIG L   1      46.608  29.548  78.897  1.00  0.00     0.150 C 
BRANCH    7    8
ATOM      8  N2  LIG L   1      46.411  29.341  77.471  1.00  0.00    -0.312 N 
ATOM      9  C5  LIG L   1      46.650  28.201  75.350  1.00  0.00     0.109 C 
ATOM     10  C6  LIG L   1      46.863  28.203  76.839  1.00  0.00     0.210 C 
ATOM     11  O3  LIG L   1      47.366  27.251  77.425  1.00  0.00    -0.276 OA
ATOM     12  H1  LIG L   1      45.943  30.029  76.946  1.00  0.00     0.149 HD
ENDBRANCH    7    8
ENDBRANCH    1    7
BRANCH    3   13
ATOM     13  C7  LIG L   1      43.938  33.621  79.519  1.00  0.00     0.042 A 
ATOM     14  C8  LIG L   1      44.359  34.601  78.617  1.00  0.00     0.025 A 
ATOM     15  C9  LIG L   1      43.150  34.043  80.596  1.00  0.00     0.063 A 
ATOM     16 C10  LIG L   1      44.005  35.950  78.786  1.00  0.00     0.028 A 
ATOM     17 C11  LIG L   1      42.800  35.390  80.756  1.00  0.00     0.146 A 
ATOM     18 C12  LIG L   1      43.207  36.385  79.853  1.00  0.00     0.066 A 
ATOM     19  F1  LIG L   1      42.025  35.688  81.811  1.00  0.00    -0.203 F 
BRANCH   18   20
ATOM     20  N3  LIG L   1      42.909  37.755  79.961  1.00  0.00    -0.323 N 
ATOM     21 C13  LIG L   1      43.511  38.577  78.886  1.00  0.00     0.133 C 
ATOM     22 C14  LIG L   1      41.498  38.141  80.200  1.00  0.00     0.142 C 
ATOM     23 C15  LIG L   1      43.385  40.065  79.240  1.00  0.00     0.179 C 
ATOM     24 C16  LIG L   1      41.402  39.652  80.560  1.00  0.00     0.108 C 
ATOM     25  O4  LIG L   1      42.038  40.460  79.537  1.00  0.00    -0.368 OA
ATOM     26 C17  LIG L   1      42.009  39.919  81.963  1.00  0.00     0.041 C 
ATOM     27 C18  LIG L   1      39.910  40.075  80.557  1.00  0.00     0.196 C 
ATOM     28 C19  LIG L   1      41.301  41.085  82.644  1.00  0.00     0.031 C 
ATOM     29  O5  LIG L   1      39.311  39.869  81.835  1.00  0.00    -0.377 OA
ATOM     30 C20  LIG L   1      39.811  40.789  82.810  1.00  0.00     0.160 C 
ENDBRANCH   18   20
ENDBRANCH    3   13
TORSDOF 4
ENDMDL
MODEL 4
REMARK VINA RESULT:    -7.280      8.387     11.169
REMARK ITER + INTRA:           -8.955
REMARK INTER:                  -8.223
REMARK INTRA:                  -0.732
REMARK UNBOUND:                 0.027
REMARK Flexibility Score: inf
REMARK Active torsions [ 4 ] -> [ 4 ]
ROOT
ATOM      1  C1  LIG L   1      42.275  33.378  78.980  1.00  0.00     0.213 C 
ATOM      2  C2  LIG L   1      43.646  33.857  78.559  1.00  0.00     0.163 C 
ATOM      3  N1  LIG L   1      43.427  34.381  77.244  1.00  0.00    -0.234 N 
ATOM      4  C3  LIG L   1      42.202  33.928  76.771  1.00  0.00     0.408 C 
ATOM      5  O1  LIG L   1      41.699  34.093  75.673  1.00  0.00    -0.226 OA
ATOM      6  O2  LIG L   1      41.563  33.209  77.750  1.00  0.00    -0.444 O 
ENDROOT
BRANCH    1    7
ATOM      7  C4  LIG L   1      42.337  32.073  79.777  1.00  0.00     0.150 C 
BRANCH    7    8
ATOM      8  N2  LIG L   1      43.519  31.287  79.462  1.00  0.00    -0.312 N 
ATOM      9  C5  LIG L   1      45.091  29.465  79.708  1.00  0.00     0.109 C 
ATOM     10  C6  LIG L   1      43.781  30.093  80.097  1.00  0.00     0.210 C 
ATOM     11  O3  LIG L   1      43.013  29.557  80.887  1.00  0.00    -0.276 OA
ATOM     12  H1  LIG L   1      44.146  31.616  78.778  1.00  0.00     0.149 HD
ENDBRANCH    7    8
ENDBRANCH    1    7
BRANCH    3   13
ATOM     13  C7  LIG L   1      44.410  35.112  76.526  1.00  0.00     0.042 A 
ATOM     14  C8  LIG L   1      45.505  34.492  75.921  1.00  0.00     0.025 A 
ATOM     15  C9  LIG L   1      44.315  36.502  76.399  1.00  0.00     0.063 A 
ATOM     16 C10  LIG L   1      46.468  35.234  75.214  1.00  0.00     0.028 A 
ATOM     17 C11  LIG L   1      45.278  37.235  75.692  1.00  0.00     0.146 A 
ATOM     18 C12  LIG L   1      46.378  36.625  75.070  1.00  0.00     0.066 A 
ATOM     19  F1  LIG L   1      45.084  38.561  75.612  1.00  0.00    -0.203 F 
BRANCH   18   20
ATOM     20  N3  LIG L   1      47.390  37.298  74.361  1.00  0.00    -0.323 N 
ATOM     21 C13  LIG L   1      48.596  37.576  75.174  1.00  0.00     0.133 C 
ATOM     22 C14  LIG L   1      47.758  36.781  73.021  1.00  0.00     0.142 C 
ATOM     23 C15  LIG L   1      49.513  38.553  74.424  1.00  0.00     0.179 C 
ATOM     24 C16  LIG L   1      48.683  37.794  72.284  1.00  0.00     0.108 C 
ATOM     25  O4  LIG L   1      49.839  38.112  73.098  1.00  0.00    -0.368 OA
ATOM     26 C17  LIG L   1      47.890  39.068  71.888  1.00  0.00     0.041 C 
ATOM     27 C18  LIG L   1      49.245  37.120  71.005  1.00  0.00     0.196 C 
ATOM     28 C19  LIG L   1      48.449  39.673  70.605  1.00  0.00     0.031 C 
ATOM     29  O5  LIG L   1      48.372  37.311  69.893  1.00  0.00    -0.377 OA
ATOM     30 C20  LIG L   1      48.363  38.672  69.453  1.00  0.00     0.160 C 
ENDBRANCH   18   20
ENDBRANCH    3   13
TORSDOF 4
ENDMDL
MODEL 5
REMARK VINA RESULT:    -7.256      1.600      1.879
REMARK ITER + INTRA:           -8.926
REMARK INTER:                  -8.312
REMARK INTRA:                  -0.614
REMARK UNBOUND:                 0.027
REMARK Flexibility Score: inf
REMARK Active torsions [ 4 ] -> [ 4 ]
ROOT
ATOM      1  C1  LIG L   1      38.595  41.073  84.438  1.00  0.00     0.213 C 
ATOM      2  C2  LIG L   1      38.967  40.564  83.063  1.00  0.00     0.163 C 
ATOM      3  N1  LIG L   1      40.206  39.881  83.284  1.00  0.00    -0.234 N 
ATOM      4  C3  LIG L   1      40.720  40.258  84.519  1.00  0.00     0.408 C 
ATOM      5  O1  LIG L   1      41.786  39.954  85.028  1.00  0.00    -0.226 OA
ATOM      6  O2  LIG L   1      39.830  41.081  85.160  1.00  0.00    -0.444 O 
ENDROOT
BRANCH    1    7
ATOM      7  C4  LIG L   1      37.962  42.465  84.389  1.00  0.00     0.150 C 
BRANCH    7    8
ATOM      8  N2  LIG L   1      36.809  42.579  85.266  1.00  0.00    -0.312 N 
ATOM      9  C5  LIG L   1      34.455  42.653  85.825  1.00  0.00     0.109 C 
ATOM     10  C6  LIG L   1      35.525  42.410  84.795  1.00  0.00     0.210 C 
ATOM     11  O3  LIG L   1      35.258  42.061  83.651  1.00  0.00    -0.276 OA
ATOM     12  H1  LIG L   1      36.948  42.782  86.220  1.00  0.00     0.149 HD
ENDBRANCH    7    8
ENDBRANCH    1    7
BRANCH    3   13
ATOM     13  C7  LIG L   1      40.839  39.082  82.296  1.00  0.00     0.042 A 
ATOM     14  C8  LIG L   1      41.229  37.763  82.542  1.00  0.00     0.025 A 
ATOM     15  C9  LIG L   1      41.100  39.595  81.021  1.00  0.00     0.063 A 
ATOM     16 C10  LIG L   1      41.854  36.988  81.550  1.00  0.00     0.028 A 
ATOM     17 C11  LIG L   1      41.722  38.816  80.037  1.00  0.00     0.146 A 
ATOM     18 C12  LIG L   1      42.111  37.487  80.265  1.00  0.00     0.066 A 
ATOM     19  F1  LIG L   1      41.909  39.396  78.840  1.00  0.00    -0.203 F 
BRANCH   18   20
ATOM     20  N3  LIG L   1      42.755  36.653  79.333  1.00  0.00    -0.323 N 
ATOM     21 C13  LIG L   1      44.124  37.098  78.989  1.00  0.00     0.133 C 
ATOM     22 C14  LIG L   1      42.713  35.190  79.567  1.00  0.00     0.142 C 
ATOM     23 C15  LIG L   1      44.633  36.317  77.770  1.00  0.00     0.179 C 
ATOM     24 C16  LIG L   1      43.229  34.425  78.313  1.00  0.00     0.108 C 
ATOM     25  O4  LIG L   1      44.549  34.895  77.939  1.00  0.00    -0.368 OA
ATOM     26 C17  LIG L   1      42.220  34.553  77.141  1.00  0.00     0.041 C 
ATOM     27 C18  LIG L   1      43.407  32.928  78.677  1.00  0.00     0.196 C 
ATOM     28 C19  LIG L   1      42.256  33.310  76.259  1.00  0.00     0.031 C 
ATOM     29  O5  LIG L   1      42.201  32.197  78.462  1.00  0.00    -0.377 OA
ATOM     30 C20  LIG L   1      41.902  32.063  77.069  1.00  0.00     0.160 C 
ENDBRANCH   18   20
ENDBRANCH    3   13
TORSDOF 4
ENDMDL
MODEL 6
REMARK VINA RESULT:    -7.239      3.712     11.161
REMARK ITER + INTRA:           -8.905
REMARK INTER:                  -8.347
REMARK INTRA:                  -0.558
REMARK UNBOUND:                 0.027
REMARK Flexibility Score: inf
REMARK Active torsions [ 4 ] -> [ 4 ]
ROOT
ATOM      1  C1  LIG L   1      44.698  30.821  78.858  1.00  0.00     0.213 C 
ATOM      2  C2  LIG L   1      44.868  32.199  79.458  1.00  0.00     0.163 C 
ATOM      3  N1  LIG L   1      43.756  32.931  78.929  1.00  0.00    -0.234 N 
ATOM      4  C3  LIG L   1      43.219  32.232  77.855  1.00  0.00     0.408 C 
ATOM      5  O1  LIG L   1      42.319  32.562  77.102  1.00  0.00    -0.226 OA
ATOM      6  O2  LIG L   1      43.864  31.030  77.714  1.00  0.00    -0.444 O 
ENDROOT
BRANCH    1    7
ATOM      7  C4  LIG L   1      46.037  30.189  78.471  1.00  0.00     0.150 C 
BRANCH    7    8
ATOM      8  N2  LIG L   1      46.037  29.686  77.107  1.00  0.00    -0.312 N 
ATOM      9  C5  LIG L   1      46.683  28.222  75.291  1.00  0.00     0.109 C 
ATOM     10  C6  LIG L   1      46.722  28.541  76.761  1.00  0.00     0.210 C 
ATOM     11  O3  LIG L   1      47.289  27.815  77.569  1.00  0.00    -0.276 OA
ATOM     12  H1  LIG L   1      45.537  30.174  76.414  1.00  0.00     0.149 HD
ENDBRANCH    7    8
ENDBRANCH    1    7
BRANCH    3   13
ATOM     13  C7  LIG L   1      43.404  34.234  79.370  1.00  0.00     0.042 A 
ATOM     14  C8  LIG L   1      43.568  35.363  78.565  1.00  0.00     0.025 A 
ATOM     15  C9  LIG L   1      42.874  34.436  80.649  1.00  0.00     0.063 A 
ATOM     16 C10  LIG L   1      43.214  36.645  79.020  1.00  0.00     0.028 A 
ATOM     17 C11  LIG L   1      42.521  35.716  81.096  1.00  0.00     0.146 A 
ATOM     18 C12  LIG L   1      42.671  36.859  80.295  1.00  0.00     0.066 A 
ATOM     19  F1  LIG L   1      42.002  35.799  82.331  1.00  0.00    -0.203 F 
BRANCH   18   20
ATOM     20  N3  LIG L   1      42.356  38.174  80.683  1.00  0.00    -0.323 N 
ATOM     21 C13  LIG L   1      42.759  39.196  79.690  1.00  0.00     0.133 C 
ATOM     22 C14  LIG L   1      40.990  38.437  81.195  1.00  0.00     0.142 C 
ATOM     23 C15  LIG L   1      42.649  40.595  80.312  1.00  0.00     0.179 C 
ATOM     24 C16  LIG L   1      40.911  39.859  81.823  1.00  0.00     0.108 C 
ATOM     25  O4  LIG L   1      41.355  40.861  80.873  1.00  0.00    -0.368 OA
ATOM     26 C17  LIG L   1      41.723  39.919  83.143  1.00  0.00     0.041 C 
ATOM     27 C18  LIG L   1      39.425  40.195  82.118  1.00  0.00     0.196 C 
ATOM     28 C19  LIG L   1      41.100  40.914  84.116  1.00  0.00     0.031 C 
ATOM     29  O5  LIG L   1      39.041  39.745  83.417  1.00  0.00    -0.377 OA
ATOM     30 C20  LIG L   1      39.663  40.515  84.450  1.00  0.00     0.160 C 
ENDBRANCH   18   20
ENDBRANCH    3   13
TORSDOF 4
ENDMDL
MODEL 7
REMARK VINA RESULT:    -7.201      8.125     12.177
REMARK ITER + INTRA:           -8.859
REMARK INTER:                  -8.321
REMARK INTRA:                  -0.538
REMARK UNBOUND:                 0.027
REMARK Flexibility Score: inf
REMARK Active torsions [ 4 ] -> [ 4 ]
ROOT
ATOM      1  C1  LIG L   1      43.357  33.069  80.136  1.00  0.00     0.213 C 
ATOM      2  C2  LIG L   1      43.578  32.023  79.066  1.00  0.00     0.163 C 
ATOM      3  N1  LIG L   1      44.990  31.785  79.120  1.00  0.00    -0.234 N 
ATOM      4  C3  LIG L   1      45.598  32.814  79.829  1.00  0.00     0.408 C 
ATOM      5  O1  LIG L   1      46.786  33.008  80.025  1.00  0.00    -0.226 OA
ATOM      6  O2  LIG L   1      44.643  33.665  80.324  1.00  0.00    -0.444 O 
ENDROOT
BRANCH    1    7
ATOM      7  C4  LIG L   1      42.310  34.106  79.724  1.00  0.00     0.150 C 
BRANCH    7    8
ATOM      8  N2  LIG L   1      41.612  33.733  78.504  1.00  0.00    -0.312 N 
ATOM      9  C5  LIG L   1      41.080  33.829  76.145  1.00  0.00     0.109 C 
ATOM     10  C6  LIG L   1      41.968  34.259  77.281  1.00  0.00     0.210 C 
ATOM     11  O3  LIG L   1      42.938  34.988  77.107  1.00  0.00    -0.276 OA
ATOM     12  H1  LIG L   1      40.869  33.090  78.552  1.00  0.00     0.149 HD
ENDBRANCH    7    8
ENDBRANCH    1    7
BRANCH    3   13
ATOM     13  C7  LIG L   1      45.628  30.734  78.410  1.00  0.00     0.042 A 
ATOM     14  C8  LIG L   1      45.711  30.720  77.016  1.00  0.00     0.025 A 
ATOM     15  C9  LIG L   1      46.204  29.658  79.093  1.00  0.00     0.063 A 
ATOM     16 C10  LIG L   1      46.347  29.670  76.332  1.00  0.00     0.028 A 
ATOM     17 C11  LIG L   1      46.838  28.615  78.404  1.00  0.00     0.146 A 
ATOM     18 C12  LIG L   1      46.938  28.592  77.004  1.00  0.00     0.066 A 
ATOM     19  F1  LIG L   1      47.377  27.640  79.153  1.00  0.00    -0.203 F 
BRANCH   18   20
ATOM     20  N3  LIG L   1      47.542  27.572  76.247  1.00  0.00    -0.323 N 
ATOM     21 C13  LIG L   1      49.021  27.590  76.303  1.00  0.00     0.133 C 
ATOM     22 C14  LIG L   1      47.020  26.193  76.401  1.00  0.00     0.142 C 
ATOM     23 C15  LIG L   1      49.593  26.648  75.234  1.00  0.00     0.179 C 
ATOM     24 C16  LIG L   1      47.613  25.262  75.302  1.00  0.00     0.108 C 
ATOM     25  O4  LIG L   1      49.061  25.317  75.316  1.00  0.00    -0.368 OA
ATOM     26 C17  LIG L   1      47.037  25.628  73.909  1.00  0.00     0.041 C 
ATOM     27 C18  LIG L   1      47.248  23.793  75.639  1.00  0.00     0.196 C 
ATOM     28 C19  LIG L   1      46.951  24.393  73.019  1.00  0.00     0.031 C 
ATOM     29  O5  LIG L   1      45.987  23.431  75.078  1.00  0.00    -0.377 OA
ATOM     30 C20  LIG L   1      46.049  23.333  73.652  1.00  0.00     0.160 C 
ENDBRANCH   18   20
ENDBRANCH    3   13
TORSDOF 4
ENDMDL
MODEL 8
REMARK VINA RESULT:    -7.177      8.442     13.554
REMARK ITER + INTRA:           -8.829
REMARK INTER:                  -8.242
REMARK INTRA:                  -0.586
REMARK UNBOUND:                 0.027
REMARK Flexibility Score: inf
REMARK Active torsions [ 4 ] -> [ 4 ]
ROOT
ATOM      1  C1  LIG L   1      49.046  37.151  69.490  1.00  0.00     0.213 C 
ATOM      2  C2  LIG L   1      48.274  37.267  70.786  1.00  0.00     0.163 C 
ATOM      3  N1  LIG L   1      47.972  35.906  71.116  1.00  0.00    -0.234 N 
ATOM      4  C3  LIG L   1      48.172  35.109  69.995  1.00  0.00     0.408 C 
ATOM      5  O1  LIG L   1      47.952  33.918  69.855  1.00  0.00    -0.226 OA
ATOM      6  O2  LIG L   1      48.683  35.867  68.972  1.00  0.00    -0.444 O 
ENDROOT
BRANCH    1    7
ATOM      7  C4  LIG L   1      48.700  38.272  68.508  1.00  0.00     0.150 C 
BRANCH    7    8
ATOM      8  N2  LIG L   1      47.946  39.345  69.137  1.00  0.00    -0.312 N 
ATOM      9  C5  LIG L   1      47.505  41.618  69.842  1.00  0.00     0.109 C 
ATOM     10  C6  LIG L   1      48.358  40.658  69.058  1.00  0.00     0.210 C 
ATOM     11  O3  LIG L   1      49.312  41.035  68.388  1.00  0.00    -0.276 OA
ATOM     12  H1  LIG L   1      47.122  39.129  69.630  1.00  0.00     0.149 HD
ENDBRANCH    7    8
ENDBRANCH    1    7
BRANCH    3   13
ATOM     13  C7  LIG L   1      47.411  35.515  72.360  1.00  0.00     0.042 A 
ATOM     14  C8  LIG L   1      46.332  36.191  72.935  1.00  0.00     0.025 A 
ATOM     15  C9  LIG L   1      47.928  34.423  73.066  1.00  0.00     0.063 A 
ATOM     16 C10  LIG L   1      45.790  35.788  74.168  1.00  0.00     0.028 A 
ATOM     17 C11  LIG L   1      47.381  34.027  74.293  1.00  0.00     0.146 A 
ATOM     18 C12  LIG L   1      46.291  34.689  74.880  1.00  0.00     0.066 A 
ATOM     19  F1  LIG L   1      47.936  32.954  74.880  1.00  0.00    -0.203 F 
BRANCH   18   20
ATOM     20  N3  LIG L   1      45.704  34.359  76.115  1.00  0.00    -0.323 N 
ATOM     21 C13  LIG L   1      46.598  34.586  77.273  1.00  0.00     0.133 C 
ATOM     22 C14  LIG L   1      44.338  34.863  76.389  1.00  0.00     0.142 C 
ATOM     23 C15  LIG L   1      45.997  33.935  78.527  1.00  0.00     0.179 C 
ATOM     24 C16  LIG L   1      43.753  34.183  77.661  1.00  0.00     0.108 C 
ATOM     25  O4  LIG L   1      44.650  34.355  78.788  1.00  0.00    -0.368 OA
ATOM     26 C17  LIG L   1      43.452  32.685  77.390  1.00  0.00     0.041 C 
ATOM     27 C18  LIG L   1      42.440  34.906  78.060  1.00  0.00     0.196 C 
ATOM     28 C19  LIG L   1      42.267  32.213  78.224  1.00  0.00     0.031 C 
ATOM     29  O5  LIG L   1      41.313  34.334  77.398  1.00  0.00    -0.377 OA
ATOM     30 C20  LIG L   1      41.016  33.026  77.892  1.00  0.00     0.160 C 
ENDBRANCH   18   20
ENDBRANCH    3   13
TORSDOF 4
ENDMDL
MODEL 9
REMARK VINA RESULT:    -7.172      3.587     11.051
REMARK ITER + INTRA:           -8.822
REMARK INTER:                  -8.314
REMARK INTRA:                  -0.507
REMARK UNBOUND:                 0.027
REMARK Flexibility Score: inf
REMARK Active torsions [ 4 ] -> [ 4 ]
ROOT
ATOM      1  C1  LIG L   1      44.561  31.178  78.354  1.00  0.00     0.213 C 
ATOM      2  C2  LIG L   1      44.829  32.608  78.769  1.00  0.00     0.163 C 
ATOM      3  N1  LIG L   1      43.522  33.124  79.047  1.00  0.00    -0.234 N 
ATOM      4  C3  LIG L   1      42.570  32.272  78.499  1.00  0.00     0.408 C 
ATOM      5  O1  LIG L   1      41.358  32.406  78.459  1.00  0.00    -0.226 OA
ATOM      6  O2  LIG L   1      43.186  31.172  77.959  1.00  0.00    -0.444 O 
ENDROOT
BRANCH    1    7
ATOM      7  C4  LIG L   1      45.476  30.725  77.214  1.00  0.00     0.150 C 
BRANCH    7    8
ATOM      8  N2  LIG L   1      46.269  29.560  77.571  1.00  0.00    -0.312 N 
ATOM      9  C5  LIG L   1      47.376  27.440  77.197  1.00  0.00     0.109 C 
ATOM     10  C6  LIG L   1      46.635  28.621  76.631  1.00  0.00     0.210 C 
ATOM     11  O3  LIG L   1      46.415  28.736  75.431  1.00  0.00    -0.276 OA
ATOM     12  H1  LIG L   1      46.552  29.439  78.507  1.00  0.00     0.149 HD
ENDBRANCH    7    8
ENDBRANCH    1    7
BRANCH    3   13
ATOM     13  C7  LIG L   1      43.299  34.389  79.651  1.00  0.00     0.042 A 
ATOM     14  C8  LIG L   1      42.992  34.524  81.006  1.00  0.00     0.025 A 
ATOM     15  C9  LIG L   1      43.378  35.565  78.896  1.00  0.00     0.063 A 
ATOM     16 C10  LIG L   1      42.774  35.786  81.585  1.00  0.00     0.028 A 
ATOM     17 C11  LIG L   1      43.162  36.820  79.481  1.00  0.00     0.146 A 
ATOM     18 C12  LIG L   1      42.863  36.972  80.843  1.00  0.00     0.066 A 
ATOM     19  F1  LIG L   1      43.282  37.886  78.674  1.00  0.00    -0.203 F 
BRANCH   18   20
ATOM     20  N3  LIG L   1      42.616  38.196  81.492  1.00  0.00    -0.323 N 
ATOM     21 C13  LIG L   1      43.704  39.185  81.322  1.00  0.00     0.133 C 
ATOM     22 C14  LIG L   1      41.288  38.826  81.300  1.00  0.00     0.142 C 
ATOM     23 C15  LIG L   1      43.493  40.359  82.288  1.00  0.00     0.179 C 
ATOM     24 C16  LIG L   1      41.100  40.009  82.294  1.00  0.00     0.108 C 
ATOM     25  O4  LIG L   1      42.192  40.955  82.171  1.00  0.00    -0.368 OA
ATOM     26 C17  LIG L   1      40.956  39.484  83.747  1.00  0.00     0.041 C 
ATOM     27 C18  LIG L   1      39.822  40.795  81.903  1.00  0.00     0.196 C 
ATOM     28 C19  LIG L   1      40.062  40.406  84.568  1.00  0.00     0.031 C 
ATOM     29  O5  LIG L   1      38.666  40.252  82.539  1.00  0.00    -0.377 OA
ATOM     30 C20  LIG L   1      38.669  40.500  83.947  1.00  0.00     0.160 C 
ENDBRANCH   18   20
ENDBRANCH    3   13
TORSDOF 4
ENDMDL
MODEL 10
REMARK VINA RESULT:    -7.160      3.173     10.288
REMARK ITER + INTRA:           -8.807
REMARK INTER:                  -8.243
REMARK INTRA:                  -0.565
REMARK UNBOUND:                 0.027
REMARK Flexibility Score: inf
REMARK Active torsions [ 4 ] -> [ 4 ]
ROOT
ATOM      1  C1  LIG L   1      43.277  31.619  79.271  1.00  0.00     0.213 C 
ATOM      2  C2  LIG L   1      43.678  32.938  79.894  1.00  0.00     0.163 C 
ATOM      3  N1  LIG L   1      42.583  33.804  79.571  1.00  0.00    -0.234 N 
ATOM      4  C3  LIG L   1      41.823  33.222  78.564  1.00  0.00     0.408 C 
ATOM      5  O1  LIG L   1      40.861  33.681  77.971  1.00  0.00    -0.226 OA
ATOM      6  O2  LIG L   1      42.310  31.972  78.278  1.00  0.00    -0.444 O 
ENDROOT
BRANCH    1    7
ATOM      7  C4  LIG L   1      44.470  30.882  78.659  1.00  0.00     0.150 C 
BRANCH    7    8
ATOM      8  N2  LIG L   1      44.825  29.686  79.408  1.00  0.00    -0.312 N 
ATOM      9  C5  LIG L   1      46.091  28.364  80.989  1.00  0.00     0.109 C 
ATOM     10  C6  LIG L   1      45.796  29.709  80.385  1.00  0.00     0.210 C 
ATOM     11  O3  LIG L   1      46.358  30.730  80.765  1.00  0.00    -0.276 OA
ATOM     12  H1  LIG L   1      44.360  28.841  79.212  1.00  0.00     0.149 HD
ENDBRANCH    7    8
ENDBRANCH    1    7
BRANCH    3   13
ATOM     13  C7  LIG L   1      42.439  35.109  80.113  1.00  0.00     0.042 A 
ATOM     14  C8  LIG L   1      42.120  36.214  79.321  1.00  0.00     0.025 A 
ATOM     15  C9  LIG L   1      42.617  35.336  81.482  1.00  0.00     0.063 A 
ATOM     16 C10  LIG L   1      41.982  37.497  79.878  1.00  0.00     0.028 A 
ATOM     17 C11  LIG L   1      42.476  36.619  82.030  1.00  0.00     0.146 A 
ATOM     18 C12  LIG L   1      42.146  37.737  81.249  1.00  0.00     0.066 A 
ATOM     19  F1  LIG L   1      42.647  36.726  83.357  1.00  0.00    -0.203 F 
BRANCH   18   20
ATOM     20  N3  LIG L   1      42.007  39.053  81.727  1.00  0.00    -0.323 N 
ATOM     21 C13  LIG L   1      42.522  40.078  80.791  1.00  0.00     0.133 C 
ATOM     22 C14  LIG L   1      40.693  39.452  82.284  1.00  0.00     0.142 C 
ATOM     23 C15  LIG L   1      42.600  41.436  81.503  1.00  0.00     0.179 C 
ATOM     24 C16  LIG L   1      40.804  40.829  83.003  1.00  0.00     0.108 C 
ATOM     25  O4  LIG L   1      41.358  41.826  82.108  1.00  0.00    -0.368 OA
ATOM     26 C17  LIG L   1      41.636  40.699  84.306  1.00  0.00     0.041 C 
ATOM     27 C18  LIG L   1      39.377  41.329  83.352  1.00  0.00     0.196 C 
ATOM     28 C19  LIG L   1      41.158  41.698  85.353  1.00  0.00     0.031 C 
ATOM     29  O5  LIG L   1      38.958  40.847  84.627  1.00  0.00    -0.377 OA
ATOM     30 C20  LIG L   1      39.687  41.462  85.693  1.00  0.00     0.160 C 
ENDBRANCH   18   20
ENDBRANCH    3   13
TORSDOF 4
ENDMDL
MODEL 11
REMARK VINA RESULT:    -7.154      2.886     10.135
REMARK ITER + INTRA:           -8.800
REMARK INTER:                  -8.340
REMARK INTRA:                  -0.460
REMARK UNBOUND:                 0.027
REMARK Flexibility Score: inf
REMARK Active torsions [ 4 ] -> [ 4 ]
ROOT
ATOM      1  C1  LIG L   1      43.047  31.812  79.253  1.00  0.00     0.213 C 
ATOM      2  C2  LIG L   1      43.532  33.055  79.967  1.00  0.00     0.163 C 
ATOM      3  N1  LIG L   1      42.521  34.025  79.667  1.00  0.00    -0.234 N 
ATOM      4  C3  LIG L   1      41.750  33.567  78.606  1.00  0.00     0.408 C 
ATOM      5  O1  LIG L   1      40.847  34.137  78.016  1.00  0.00    -0.226 OA
ATOM      6  O2  LIG L   1      42.145  32.301  78.257  1.00  0.00    -0.444 O 
ENDROOT
BRANCH    1    7
ATOM      7  C4  LIG L   1      44.197  31.017  78.630  1.00  0.00     0.150 C 
BRANCH    7    8
ATOM      8  N2  LIG L   1      44.556  29.851  79.421  1.00  0.00    -0.312 N 
ATOM      9  C5  LIG L   1      45.907  28.546  80.947  1.00  0.00     0.109 C 
ATOM     10  C6  LIG L   1      45.633  29.867  80.281  1.00  0.00     0.210 C 
ATOM     11  O3  LIG L   1      46.301  30.866  80.520  1.00  0.00    -0.276 OA
ATOM     12  H1  LIG L   1      44.017  29.031  79.341  1.00  0.00     0.149 HD
ENDBRANCH    7    8
ENDBRANCH    1    7
BRANCH    3   13
ATOM     13  C7  LIG L   1      42.464  35.302  80.285  1.00  0.00     0.042 A 
ATOM     14  C8  LIG L   1      42.511  35.462  81.672  1.00  0.00     0.025 A 
ATOM     15  C9  LIG L   1      42.354  36.464  79.513  1.00  0.00     0.063 A 
ATOM     16 C10  LIG L   1      42.453  36.735  82.264  1.00  0.00     0.028 A 
ATOM     17 C11  LIG L   1      42.298  37.730  80.111  1.00  0.00     0.146 A 
ATOM     18 C12  LIG L   1      42.355  37.908  81.502  1.00  0.00     0.066 A 
ATOM     19  F1  LIG L   1      42.214  38.783  79.281  1.00  0.00    -0.203 F 
BRANCH   18   20
ATOM     20  N3  LIG L   1      42.286  39.144  82.170  1.00  0.00    -0.323 N 
ATOM     21 C13  LIG L   1      43.344  40.096  81.763  1.00  0.00     0.133 C 
ATOM     22 C14  LIG L   1      40.967  39.815  82.250  1.00  0.00     0.142 C 
ATOM     23 C15  LIG L   1      43.374  41.285  82.734  1.00  0.00     0.179 C 
ATOM     24 C16  LIG L   1      41.027  41.012  83.245  1.00  0.00     0.108 C 
ATOM     25  O4  LIG L   1      42.096  41.921  82.882  1.00  0.00    -0.368 OA
ATOM     26 C17  LIG L   1      41.174  40.503  84.703  1.00  0.00     0.041 C 
ATOM     27 C18  LIG L   1      39.718  41.836  83.117  1.00  0.00     0.196 C 
ATOM     28 C19  LIG L   1      40.499  41.460  85.679  1.00  0.00     0.031 C 
ATOM     29  O5  LIG L   1      38.705  41.335  83.988  1.00  0.00    -0.377 OA
ATOM     30 C20  LIG L   1      39.010  41.594  85.361  1.00  0.00     0.160 C 
ENDBRANCH   18   20
ENDBRANCH    3   13
TORSDOF 4
ENDMDL
MODEL 12
REMARK VINA RESULT:    -7.108      6.884     11.032
REMARK ITER + INTRA:           -8.743
REMARK INTER:                  -8.338
REMARK INTRA:                  -0.406
REMARK UNBOUND:                 0.027
REMARK Flexibility Score: inf
REMARK Active torsions [ 4 ] -> [ 4 ]
ROOT
ATOM      1  C1  LIG L   1      42.822  34.185  79.783  1.00  0.00     0.213 C 
ATOM      2  C2  LIG L   1      44.059  33.624  79.117  1.00  0.00     0.163 C 
ATOM      3  N1  LIG L   1      43.905  32.208  79.269  1.00  0.00    -0.234 N 
ATOM      4  C3  LIG L   1      42.935  31.956  80.231  1.00  0.00     0.408 C 
ATOM      5  O1  LIG L   1      42.576  30.885  80.693  1.00  0.00    -0.226 OA
ATOM      6  O2  LIG L   1      42.376  33.137  80.648  1.00  0.00    -0.444 O 
ENDROOT
BRANCH    1    7
ATOM      7  C4  LIG L   1      43.117  35.470  80.560  1.00  0.00     0.150 C 
BRANCH    7    8
ATOM      8  N2  LIG L   1      41.987  36.386  80.563  1.00  0.00    -0.312 N 
ATOM      9  C5  LIG L   1      40.844  38.487  80.198  1.00  0.00     0.109 C 
ATOM     10  C6  LIG L   1      42.082  37.651  80.025  1.00  0.00     0.210 C 
ATOM     11  O3  LIG L   1      43.068  38.065  79.426  1.00  0.00    -0.276 OA
ATOM     12  H1  LIG L   1      41.134  36.094  80.959  1.00  0.00     0.149 HD
ENDBRANCH    7    8
ENDBRANCH    1    7
BRANCH    3   13
ATOM     13  C7  LIG L   1      44.748  31.261  78.629  1.00  0.00     0.042 A 
ATOM     14  C8  LIG L   1      44.969  31.274  77.249  1.00  0.00     0.025 A 
ATOM     15  C9  LIG L   1      45.395  30.266  79.368  1.00  0.00     0.063 A 
ATOM     16 C10  LIG L   1      45.807  30.329  76.634  1.00  0.00     0.028 A 
ATOM     17 C11  LIG L   1      46.231  29.328  78.747  1.00  0.00     0.146 A 
ATOM     18 C12  LIG L   1      46.471  29.333  77.365  1.00  0.00     0.066 A 
ATOM     19  F1  LIG L   1      46.821  28.426  79.549  1.00  0.00    -0.203 F 
BRANCH   18   20
ATOM     20  N3  LIG L   1      47.281  28.414  76.674  1.00  0.00    -0.323 N 
ATOM     21 C13  LIG L   1      48.731  28.664  76.836  1.00  0.00     0.133 C 
ATOM     22 C14  LIG L   1      46.969  26.972  76.818  1.00  0.00     0.142 C 
ATOM     23 C15  LIG L   1      49.520  27.814  75.831  1.00  0.00     0.179 C 
ATOM     24 C16  LIG L   1      47.779  26.136  75.784  1.00  0.00     0.108 C 
ATOM     25  O4  LIG L   1      49.197  26.417  75.901  1.00  0.00    -0.368 OA
ATOM     26 C17  LIG L   1      47.259  26.395  74.345  1.00  0.00     0.041 C 
ATOM     27 C18  LIG L   1      47.623  24.631  76.123  1.00  0.00     0.196 C 
ATOM     28 C19  LIG L   1      47.433  25.154  73.476  1.00  0.00     0.031 C 
ATOM     29  O5  LIG L   1      46.479  24.071  75.479  1.00  0.00    -0.377 OA
ATOM     30 C20  LIG L   1      46.662  23.972  74.064  1.00  0.00     0.160 C 
ENDBRANCH   18   20
ENDBRANCH    3   13
TORSDOF 4
ENDMDL
MODEL 13
REMARK VINA RESULT:    -7.082      3.639     10.994
REMARK ITER + INTRA:           -8.712
REMARK INTER:                  -7.922
REMARK INTRA:                  -0.790
REMARK UNBOUND:                 0.027
REMARK Flexibility Score: inf
REMARK Active torsions [ 4 ] -> [ 4 ]
ROOT
ATOM      1  C1  LIG L   1      44.763  30.385  79.343  1.00  0.00     0.213 C 
ATOM      2  C2  LIG L   1      45.003  31.855  79.607  1.00  0.00     0.163 C 
ATOM      3  N1  LIG L   1      43.763  32.467  79.234  1.00  0.00    -0.234 N 
ATOM      4  C3  LIG L   1      43.021  31.568  78.477  1.00  0.00     0.408 C 
ATOM      5  O1  LIG L   1      41.952  31.741  77.916  1.00  0.00    -0.226 OA
ATOM      6  O2  LIG L   1      43.672  30.362  78.418  1.00  0.00    -0.444 O 
ENDROOT
BRANCH    1    7
ATOM      7  C4  LIG L   1      46.001  29.690  78.772  1.00  0.00     0.150 C 
BRANCH    7    8
ATOM      8  N2  LIG L   1      46.807  30.581  77.953  1.00  0.00    -0.312 N 
ATOM      9  C5  LIG L   1      47.949  31.313  75.949  1.00  0.00     0.109 C 
ATOM     10  C6  LIG L   1      47.019  30.336  76.614  1.00  0.00     0.210 C 
ATOM     11  O3  LIG L   1      46.480  29.426  75.993  1.00  0.00    -0.276 OA
ATOM     12  H1  LIG L   1      47.211  31.379  78.365  1.00  0.00     0.149 HD
ENDBRANCH    7    8
ENDBRANCH    1    7
BRANCH    3   13
ATOM     13  C7  LIG L   1      43.463  33.831  79.488  1.00  0.00     0.042 A 
ATOM     14  C8  LIG L   1      43.697  34.834  78.545  1.00  0.00     0.025 A 
ATOM     15  C9  LIG L   1      42.914  34.225  80.714  1.00  0.00     0.063 A 
ATOM     16 C10  LIG L   1      43.393  36.179  78.817  1.00  0.00     0.028 A 
ATOM     17 C11  LIG L   1      42.612  35.568  80.976  1.00  0.00     0.146 A 
ATOM     18 C12  LIG L   1      42.832  36.586  80.036  1.00  0.00     0.066 A 
ATOM     19  F1  LIG L   1      42.069  35.838  82.175  1.00  0.00    -0.203 F 
BRANCH   18   20
ATOM     20  N3  LIG L   1      42.571  37.953  80.237  1.00  0.00    -0.323 N 
ATOM     21 C13  LIG L   1      43.191  38.829  79.218  1.00  0.00     0.133 C 
ATOM     22 C14  LIG L   1      41.171  38.358  80.508  1.00  0.00     0.142 C 
ATOM     23 C15  LIG L   1      43.105  40.294  79.672  1.00  0.00     0.179 C 
ATOM     24 C16  LIG L   1      41.116  39.844  80.970  1.00  0.00     0.108 C 
ATOM     25  O4  LIG L   1      41.770  40.702  80.001  1.00  0.00    -0.368 OA
ATOM     26 C17  LIG L   1      41.733  39.999  82.385  1.00  0.00     0.041 C 
ATOM     27 C18  LIG L   1      39.635  40.305  81.002  1.00  0.00     0.196 C 
ATOM     28 C19  LIG L   1      41.058  41.134  83.147  1.00  0.00     0.031 C 
ATOM     29  O5  LIG L   1      39.034  40.028  82.266  1.00  0.00    -0.377 OA
ATOM     30 C20  LIG L   1      39.561  40.867  83.299  1.00  0.00     0.160 C 
ENDBRANCH   18   20
ENDBRANCH    3   13
TORSDOF 4
ENDMDL
MODEL 14
REMARK VINA RESULT:    -7.073      7.552     13.061
REMARK ITER + INTRA:           -8.700
REMARK INTER:                  -8.118
REMARK INTRA:                  -0.582
REMARK UNBOUND:                 0.027
REMARK Flexibility Score: inf
REMARK Active torsions [ 4 ] -> [ 4 ]
ROOT
ATOM      1  C1  LIG L   1      48.989  36.776  70.119  1.00  0.00     0.213 C 
ATOM      2  C2  LIG L   1      48.203  37.235  71.327  1.00  0.00     0.163 C 
ATOM      3  N1  LIG L   1      47.554  36.040  71.776  1.00  0.00    -0.234 N 
ATOM      4  C3  LIG L   1      47.608  35.085  70.768  1.00  0.00     0.408 C 
ATOM      5  O1  LIG L   1      47.106  33.974  70.740  1.00  0.00    -0.226 OA
ATOM      6  O2  LIG L   1      48.345  35.564  69.714  1.00  0.00    -0.444 O 
ENDROOT
BRANCH    1    7
ATOM      7  C4  LIG L   1      48.986  37.817  68.997  1.00  0.00     0.150 C 
BRANCH    7    8
ATOM      8  N2  LIG L   1      48.148  38.963  69.308  1.00  0.00    -0.312 N 
ATOM      9  C5  LIG L   1      47.643  41.307  69.639  1.00  0.00     0.109 C 
ATOM     10  C6  LIG L   1      48.618  40.253  69.190  1.00  0.00     0.210 C 
ATOM     11  O3  LIG L   1      49.718  40.539  68.731  1.00  0.00    -0.276 OA
ATOM     12  H1  LIG L   1      47.222  38.815  69.609  1.00  0.00     0.149 HD
ENDBRANCH    7    8
ENDBRANCH    1    7
BRANCH    3   13
ATOM     13  C7  LIG L   1      46.848  35.954  73.005  1.00  0.00     0.042 A 
ATOM     14  C8  LIG L   1      46.052  36.999  73.481  1.00  0.00     0.025 A 
ATOM     15  C9  LIG L   1      46.927  34.803  73.796  1.00  0.00     0.063 A 
ATOM     16 C10  LIG L   1      45.361  36.895  74.700  1.00  0.00     0.028 A 
ATOM     17 C11  LIG L   1      46.233  34.706  75.010  1.00  0.00     0.146 A 
ATOM     18 C12  LIG L   1      45.422  35.743  75.496  1.00  0.00     0.066 A 
ATOM     19  F1  LIG L   1      46.360  33.551  75.683  1.00  0.00    -0.203 F 
BRANCH   18   20
ATOM     20  N3  LIG L   1      44.714  35.722  76.712  1.00  0.00    -0.323 N 
ATOM     21 C13  LIG L   1      44.427  37.071  77.251  1.00  0.00     0.133 C 
ATOM     22 C14  LIG L   1      43.522  34.846  76.804  1.00  0.00     0.142 C 
ATOM     23 C15  LIG L   1      43.923  36.955  78.696  1.00  0.00     0.179 C 
ATOM     24 C16  LIG L   1      43.037  34.744  78.280  1.00  0.00     0.108 C 
ATOM     25  O4  LIG L   1      42.805  36.065  78.832  1.00  0.00    -0.368 OA
ATOM     26 C17  LIG L   1      44.049  33.934  79.132  1.00  0.00     0.041 C 
ATOM     27 C18  LIG L   1      41.658  34.033  78.306  1.00  0.00     0.196 C 
ATOM     28 C19  LIG L   1      43.335  33.185  80.252  1.00  0.00     0.031 C 
ATOM     29  O5  LIG L   1      41.808  32.617  78.397  1.00  0.00    -0.377 OA
ATOM     30 C20  LIG L   1      42.300  32.217  79.679  1.00  0.00     0.160 C 
ENDBRANCH   18   20
ENDBRANCH    3   13
TORSDOF 4
ENDMDL
MODEL 15
REMARK VINA RESULT:    -7.066      4.768     11.970
REMARK ITER + INTRA:           -8.692
REMARK INTER:                  -8.046
REMARK INTRA:                  -0.646
REMARK UNBOUND:                 0.027
REMARK Flexibility Score: inf
REMARK Active torsions [ 4 ] -> [ 4 ]
ROOT
ATOM      1  C1  LIG L   1      46.359  30.015  77.959  1.00  0.00     0.213 C 
ATOM      2  C2  LIG L   1      45.777  31.407  77.864  1.00  0.00     0.163 C 
ATOM      3  N1  LIG L   1      44.913  31.485  79.004  1.00  0.00    -0.234 N 
ATOM      4  C3  LIG L   1      44.688  30.204  79.494  1.00  0.00     0.408 C 
ATOM      5  O1  LIG L   1      43.952  29.851  80.400  1.00  0.00    -0.226 OA
ATOM      6  O2  LIG L   1      45.439  29.299  78.789  1.00  0.00    -0.444 O 
ENDROOT
BRANCH    1    7
ATOM      7  C4  LIG L   1      46.511  29.355  76.587  1.00  0.00     0.150 C 
BRANCH    7    8
ATOM      8  N2  LIG L   1      46.912  27.961  76.684  1.00  0.00    -0.312 N 
ATOM      9  C5  LIG L   1      47.224  25.691  75.905  1.00  0.00     0.109 C 
ATOM     10  C6  LIG L   1      46.855  27.117  75.597  1.00  0.00     0.210 C 
ATOM     11  O3  LIG L   1      46.564  27.482  74.464  1.00  0.00    -0.276 OA
ATOM     12  H1  LIG L   1      47.233  27.612  77.547  1.00  0.00     0.149 HD
ENDBRANCH    7    8
ENDBRANCH    1    7
BRANCH    3   13
ATOM     13  C7  LIG L   1      44.289  32.689  79.424  1.00  0.00     0.042 A 
ATOM     14  C8  LIG L   1      44.895  33.567  80.325  1.00  0.00     0.025 A 
ATOM     15  C9  LIG L   1      43.023  33.043  78.943  1.00  0.00     0.063 A 
ATOM     16 C10  LIG L   1      44.261  34.755  80.729  1.00  0.00     0.028 A 
ATOM     17 C11  LIG L   1      42.398  34.230  79.349  1.00  0.00     0.146 A 
ATOM     18 C12  LIG L   1      42.998  35.127  80.246  1.00  0.00     0.066 A 
ATOM     19  F1  LIG L   1      41.194  34.487  78.814  1.00  0.00    -0.203 F 
BRANCH   18   20
ATOM     20  N3  LIG L   1      42.423  36.324  80.711  1.00  0.00    -0.323 N 
ATOM     21 C13  LIG L   1      42.344  36.408  82.186  1.00  0.00     0.133 C 
ATOM     22 C14  LIG L   1      42.910  37.597  80.129  1.00  0.00     0.142 C 
ATOM     23 C15  LIG L   1      41.453  37.590  82.592  1.00  0.00     0.179 C 
ATOM     24 C16  LIG L   1      41.985  38.776  80.553  1.00  0.00     0.108 C 
ATOM     25  O4  LIG L   1      41.860  38.831  81.997  1.00  0.00    -0.368 OA
ATOM     26 C17  LIG L   1      40.602  38.660  79.860  1.00  0.00     0.041 C 
ATOM     27 C18  LIG L   1      42.655  40.113  80.142  1.00  0.00     0.196 C 
ATOM     28 C19  LIG L   1      40.004  40.041  79.614  1.00  0.00     0.031 C 
ATOM     29  O5  LIG L   1      42.296  40.484  78.812  1.00  0.00    -0.377 OA
ATOM     30 C20  LIG L   1      40.923  40.876  78.723  1.00  0.00     0.160 C 
ENDBRANCH   18   20
ENDBRANCH    3   13
TORSDOF 4
ENDMDL
MODEL 16
REMARK VINA RESULT:    -7.064      7.533     13.662
REMARK ITER + INTRA:           -8.689
REMARK INTER:                  -8.081
REMARK INTRA:                  -0.608
REMARK UNBOUND:                 0.027
REMARK Flexibility Score: inf
REMARK Active torsions [ 4 ] -> [ 4 ]
ROOT
ATOM      1  C1  LIG L   1      48.374  35.149  69.719  1.00  0.00     0.213 C 
ATOM      2  C2  LIG L   1      47.733  34.587  70.969  1.00  0.00     0.163 C 
ATOM      3  N1  LIG L   1      47.612  35.731  71.823  1.00  0.00    -0.234 N 
ATOM      4  C3  LIG L   1      48.420  36.751  71.337  1.00  0.00     0.408 C 
ATOM      5  O1  LIG L   1      48.645  37.846  71.824  1.00  0.00    -0.226 OA
ATOM      6  O2  LIG L   1      48.991  36.365  70.151  1.00  0.00    -0.444 O 
ENDROOT
BRANCH    1    7
ATOM      7  C4  LIG L   1      49.395  34.186  69.109  1.00  0.00     0.150 C 
BRANCH    7    8
ATOM      8  N2  LIG L   1      49.314  32.854  69.688  1.00  0.00    -0.312 N 
ATOM      9  C5  LIG L   1      50.162  30.843  70.733  1.00  0.00     0.109 C 
ATOM     10  C6  LIG L   1      50.409  32.252  70.268  1.00  0.00     0.210 C 
ATOM     11  O3  LIG L   1      51.489  32.810  70.430  1.00  0.00    -0.276 OA
ATOM     12  H1  LIG L   1      48.456  32.372  69.666  1.00  0.00     0.149 HD
ENDBRANCH    7    8
ENDBRANCH    1    7
BRANCH    3   13
ATOM     13  C7  LIG L   1      46.890  35.713  73.046  1.00  0.00     0.042 A 
ATOM     14  C8  LIG L   1      46.108  36.791  73.465  1.00  0.00     0.025 A 
ATOM     15  C9  LIG L   1      46.940  34.597  73.888  1.00  0.00     0.063 A 
ATOM     16 C10  LIG L   1      45.401  36.754  74.679  1.00  0.00     0.028 A 
ATOM     17 C11  LIG L   1      46.231  34.567  75.096  1.00  0.00     0.146 A 
ATOM     18 C12  LIG L   1      45.432  35.638  75.526  1.00  0.00     0.066 A 
ATOM     19  F1  LIG L   1      46.329  33.441  75.822  1.00  0.00    -0.203 F 
BRANCH   18   20
ATOM     20  N3  LIG L   1      44.710  35.684  76.733  1.00  0.00    -0.323 N 
ATOM     21 C13  LIG L   1      44.415  37.060  77.192  1.00  0.00     0.133 C 
ATOM     22 C14  LIG L   1      43.518  34.812  76.860  1.00  0.00     0.142 C 
ATOM     23 C15  LIG L   1      43.894  37.024  78.636  1.00  0.00     0.179 C 
ATOM     24 C16  LIG L   1      43.016  34.791  78.333  1.00  0.00     0.108 C 
ATOM     25  O4  LIG L   1      42.776  36.141  78.808  1.00  0.00    -0.368 OA
ATOM     26 C17  LIG L   1      44.019  34.033  79.241  1.00  0.00     0.041 C 
ATOM     27 C18  LIG L   1      41.638  34.081  78.384  1.00  0.00     0.196 C 
ATOM     28 C19  LIG L   1      43.292  33.346  80.393  1.00  0.00     0.031 C 
ATOM     29  O5  LIG L   1      41.788  32.673  78.555  1.00  0.00    -0.377 OA
ATOM     30 C20  LIG L   1      42.266  32.345  79.863  1.00  0.00     0.160 C 
ENDBRANCH   18   20
ENDBRANCH    3   13
TORSDOF 4
ENDMDL
MODEL 17
REMARK VINA RESULT:    -7.058      3.342      9.663
REMARK ITER + INTRA:           -8.681
REMARK INTER:                  -7.856
REMARK INTRA:                  -0.826
REMARK UNBOUND:                 0.027
REMARK Flexibility Score: inf
REMARK Active torsions [ 4 ] -> [ 4 ]
ROOT
ATOM      1  C1  LIG L   1      42.099  33.604  77.357  1.00  0.00     0.213 C 
ATOM      2  C2  LIG L   1      41.638  34.123  78.701  1.00  0.00     0.163 C 
ATOM      3  N1  LIG L   1      42.514  35.230  78.948  1.00  0.00    -0.234 N 
ATOM      4  C3  LIG L   1      43.601  35.152  78.087  1.00  0.00     0.408 C 
ATOM      5  O1  LIG L   1      44.592  35.862  78.041  1.00  0.00    -0.226 OA
ATOM      6  O2  LIG L   1      43.433  34.101  77.221  1.00  0.00    -0.444 O 
ENDROOT
BRANCH    1    7
ATOM      7  C4  LIG L   1      42.056  32.077  77.281  1.00  0.00     0.150 C 
BRANCH    7    8
ATOM      8  N2  LIG L   1      43.332  31.470  77.625  1.00  0.00    -0.312 N 
ATOM      9  C5  LIG L   1      44.974  30.453  79.083  1.00  0.00     0.109 C 
ATOM     10  C6  LIG L   1      43.572  30.960  78.882  1.00  0.00     0.210 C 
ATOM     11  O3  LIG L   1      42.722  30.885  79.763  1.00  0.00    -0.276 OA
ATOM     12  H1  LIG L   1      44.041  31.422  76.944  1.00  0.00     0.149 HD
ENDBRANCH    7    8
ENDBRANCH    1    7
BRANCH    3   13
ATOM     13  C7  LIG L   1      42.330  36.141  80.022  1.00  0.00     0.042 A 
ATOM     14  C8  LIG L   1      42.530  35.772  81.354  1.00  0.00     0.025 A 
ATOM     15  C9  LIG L   1      41.934  37.461  79.779  1.00  0.00     0.063 A 
ATOM     16 C10  LIG L   1      42.342  36.689  82.403  1.00  0.00     0.028 A 
ATOM     17 C11  LIG L   1      41.751  38.369  80.830  1.00  0.00     0.146 A 
ATOM     18 C12  LIG L   1      41.957  38.017  82.173  1.00  0.00     0.066 A 
ATOM     19  F1  LIG L   1      41.391  39.617  80.489  1.00  0.00    -0.203 F 
BRANCH   18   20
ATOM     20  N3  LIG L   1      41.775  38.869  83.277  1.00  0.00    -0.323 N 
ATOM     21 C13  LIG L   1      40.365  39.268  83.489  1.00  0.00     0.133 C 
ATOM     22 C14  LIG L   1      42.420  38.492  84.556  1.00  0.00     0.142 C 
ATOM     23 C15  LIG L   1      40.298  40.410  84.512  1.00  0.00     0.179 C 
ATOM     24 C16  LIG L   1      42.341  39.670  85.572  1.00  0.00     0.108 C 
ATOM     25  O4  LIG L   1      40.967  40.102  85.744  1.00  0.00    -0.368 OA
ATOM     26 C17  LIG L   1      43.259  40.838  85.126  1.00  0.00     0.041 C 
ATOM     27 C18  LIG L   1      42.795  39.162  86.966  1.00  0.00     0.196 C 
ATOM     28 C19  LIG L   1      43.798  41.594  86.336  1.00  0.00     0.031 C 
ATOM     29  O5  LIG L   1      44.207  39.292  87.128  1.00  0.00    -0.377 OA
ATOM     30 C20  LIG L   1      44.604  40.662  87.239  1.00  0.00     0.160 C 
ENDBRANCH   18   20
ENDBRANCH    3   13
TORSDOF 4
ENDMDL
MODEL 18
REMARK VINA RESULT:    -7.048      6.133      9.778
REMARK ITER + INTRA:           -8.670
REMARK INTER:                  -8.721
REMARK INTRA:                   0.051
REMARK UNBOUND:                 0.027
REMARK Flexibility Score: inf
REMARK Active torsions [ 4 ] -> [ 4 ]
ROOT
ATOM      1  C1  LIG L   1      42.499  35.524  79.569  1.00  0.00     0.213 C 
ATOM      2  C2  LIG L   1      43.666  35.027  78.744  1.00  0.00     0.163 C 
ATOM      3  N1  LIG L   1      43.705  33.625  79.034  1.00  0.00    -0.234 N 
ATOM      4  C3  LIG L   1      42.943  33.372  80.168  1.00  0.00     0.408 C 
ATOM      5  O1  LIG L   1      42.793  32.322  80.770  1.00  0.00    -0.226 OA
ATOM      6  O2  LIG L   1      42.327  34.527  80.580  1.00  0.00    -0.444 O 
ENDROOT
BRANCH    1    7
ATOM      7  C4  LIG L   1      42.766  36.903  80.177  1.00  0.00     0.150 C 
BRANCH    7    8
ATOM      8  N2  LIG L   1      41.975  37.947  79.546  1.00  0.00    -0.312 N 
ATOM      9  C5  LIG L   1      40.154  39.530  79.355  1.00  0.00     0.109 C 
ATOM     10  C6  LIG L   1      40.909  38.533  80.192  1.00  0.00     0.210 C 
ATOM     11  O3  LIG L   1      40.605  38.301  81.357  1.00  0.00    -0.276 OA
ATOM     12  H1  LIG L   1      42.208  38.244  78.637  1.00  0.00     0.149 HD
ENDBRANCH    7    8
ENDBRANCH    1    7
BRANCH    3   13
ATOM     13  C7  LIG L   1      44.535  32.710  78.334  1.00  0.00     0.042 A 
ATOM     14  C8  LIG L   1      44.505  31.336  78.582  1.00  0.00     0.025 A 
ATOM     15  C9  LIG L   1      45.428  33.161  77.356  1.00  0.00     0.063 A 
ATOM     16 C10  LIG L   1      45.335  30.447  77.878  1.00  0.00     0.028 A 
ATOM     17 C11  LIG L   1      46.251  32.268  76.657  1.00  0.00     0.146 A 
ATOM     18 C12  LIG L   1      46.226  30.884  76.888  1.00  0.00     0.066 A 
ATOM     19  F1  LIG L   1      47.058  32.799  75.724  1.00  0.00    -0.203 F 
BRANCH   18   20
ATOM     20  N3  LIG L   1      47.034  29.933  76.239  1.00  0.00    -0.323 N 
ATOM     21 C13  LIG L   1      48.414  30.406  75.984  1.00  0.00     0.133 C 
ATOM     22 C14  LIG L   1      47.034  28.548  76.767  1.00  0.00     0.142 C 
ATOM     23 C15  LIG L   1      49.126  29.438  75.028  1.00  0.00     0.179 C 
ATOM     24 C16  LIG L   1      47.758  27.590  75.775  1.00  0.00     0.108 C 
ATOM     25  O4  LIG L   1      49.091  28.076  75.480  1.00  0.00    -0.368 OA
ATOM     26 C17  LIG L   1      46.916  27.401  74.486  1.00  0.00     0.041 C 
ATOM     27 C18  LIG L   1      47.959  26.215  76.464  1.00  0.00     0.196 C 
ATOM     28 C19  LIG L   1      47.137  26.012  73.896  1.00  0.00     0.031 C 
ATOM     29  O5  LIG L   1      46.833  25.363  76.258  1.00  0.00    -0.377 OA
ATOM     30 C20  LIG L   1      46.738  24.930  74.898  1.00  0.00     0.160 C 
ENDBRANCH   18   20
ENDBRANCH    3   13
TORSDOF 4
ENDMDL
MODEL 19
REMARK VINA RESULT:    -7.027      4.687     11.201
REMARK ITER + INTRA:           -8.644
REMARK INTER:                  -8.017
REMARK INTRA:                  -0.627
REMARK UNBOUND:                 0.027
REMARK Flexibility Score: inf
REMARK Active torsions [ 4 ] -> [ 4 ]
ROOT
ATOM      1  C1  LIG L   1      44.872  30.551  79.598  1.00  0.00     0.213 C 
ATOM      2  C2  LIG L   1      45.033  32.049  79.740  1.00  0.00     0.163 C 
ATOM      3  N1  LIG L   1      43.766  32.562  79.310  1.00  0.00    -0.234 N 
ATOM      4  C3  LIG L   1      43.079  31.566  78.627  1.00  0.00     0.408 C 
ATOM      5  O1  LIG L   1      42.008  31.636  78.048  1.00  0.00    -0.226 OA
ATOM      6  O2  LIG L   1      43.792  30.395  78.672  1.00  0.00    -0.444 O 
ENDROOT
BRANCH    1    7
ATOM      7  C4  LIG L   1      46.149  29.877  79.093  1.00  0.00     0.150 C 
BRANCH    7    8
ATOM      8  N2  LIG L   1      46.106  29.610  77.665  1.00  0.00    -0.312 N 
ATOM      9  C5  LIG L   1      46.678  28.461  75.613  1.00  0.00     0.109 C 
ATOM     10  C6  LIG L   1      46.759  28.529  77.114  1.00  0.00     0.210 C 
ATOM     11  O3  LIG L   1      47.332  27.669  77.773  1.00  0.00    -0.276 OA
ATOM     12  H1  LIG L   1      45.598  30.215  77.077  1.00  0.00     0.149 HD
ENDBRANCH    7    8
ENDBRANCH    1    7
BRANCH    3   13
ATOM     13  C7  LIG L   1      43.393  33.925  79.449  1.00  0.00     0.042 A 
ATOM     14  C8  LIG L   1      43.544  34.848  78.411  1.00  0.00     0.025 A 
ATOM     15  C9  LIG L   1      42.854  34.399  80.650  1.00  0.00     0.063 A 
ATOM     16 C10  LIG L   1      43.169  36.193  78.569  1.00  0.00     0.028 A 
ATOM     17 C11  LIG L   1      42.481  35.742  80.798  1.00  0.00     0.146 A 
ATOM     18 C12  LIG L   1      42.617  36.678  79.762  1.00  0.00     0.066 A 
ATOM     19  F1  LIG L   1      41.955  36.091  81.983  1.00  0.00    -0.203 F 
BRANCH   18   20
ATOM     20  N3  LIG L   1      42.281  38.042  79.846  1.00  0.00    -0.323 N 
ATOM     21 C13  LIG L   1      40.858  38.281  80.178  1.00  0.00     0.133 C 
ATOM     22 C14  LIG L   1      43.169  38.926  80.638  1.00  0.00     0.142 C 
ATOM     23 C15  LIG L   1      40.518  39.762  79.962  1.00  0.00     0.179 C 
ATOM     24 C16  LIG L   1      42.803  40.420  80.396  1.00  0.00     0.108 C 
ATOM     25  O4  LIG L   1      41.398  40.650  80.667  1.00  0.00    -0.368 OA
ATOM     26 C17  LIG L   1      43.189  40.849  78.956  1.00  0.00     0.041 C 
ATOM     27 C18  LIG L   1      43.574  41.297  81.417  1.00  0.00     0.196 C 
ATOM     28 C19  LIG L   1      43.568  42.326  78.916  1.00  0.00     0.031 C 
ATOM     29  O5  LIG L   1      44.857  41.668  80.916  1.00  0.00    -0.377 OA
ATOM     30 C20  LIG L   1      44.756  42.602  79.837  1.00  0.00     0.160 C 
ENDBRANCH   18   20
ENDBRANCH    3   13
TORSDOF 4
ENDMDL
MODEL 20
REMARK VINA RESULT:    -7.015      3.425     10.610
REMARK ITER + INTRA:           -8.629
REMARK INTER:                  -8.039
REMARK INTRA:                  -0.590
REMARK UNBOUND:                 0.027
REMARK Flexibility Score: inf
REMARK Active torsions [ 4 ] -> [ 4 ]
ROOT
ATOM      1  C1  LIG L   1      44.224  30.801  78.794  1.00  0.00     0.213 C 
ATOM      2  C2  LIG L   1      44.415  32.107  79.534  1.00  0.00     0.163 C 
ATOM      3  N1  LIG L   1      43.499  32.995  78.883  1.00  0.00    -0.234 N 
ATOM      4  C3  LIG L   1      43.104  32.437  77.674  1.00  0.00     0.408 C 
ATOM      5  O1  LIG L   1      42.396  32.918  76.805  1.00  0.00    -0.226 OA
ATOM      6  O2  LIG L   1      43.642  31.182  77.544  1.00  0.00    -0.444 O 
ENDROOT
BRANCH    1    7
ATOM      7  C4  LIG L   1      45.543  30.050  78.597  1.00  0.00     0.150 C 
BRANCH    7    8
ATOM      8  N2  LIG L   1      46.414  30.148  79.757  1.00  0.00    -0.312 N 
ATOM      9  C5  LIG L   1      47.276  29.530  81.932  1.00  0.00     0.109 C 
ATOM     10  C6  LIG L   1      46.367  29.220  80.774  1.00  0.00     0.210 C 
ATOM     11  O3  LIG L   1      45.676  28.207  80.743  1.00  0.00    -0.276 OA
ATOM     12  H1  LIG L   1      47.054  30.894  79.816  1.00  0.00     0.149 HD
ENDBRANCH    7    8
ENDBRANCH    1    7
BRANCH    3   13
ATOM     13  C7  LIG L   1      43.201  34.296  79.368  1.00  0.00     0.042 A 
ATOM     14  C8  LIG L   1      43.373  35.440  78.587  1.00  0.00     0.025 A 
ATOM     15  C9  LIG L   1      42.719  34.480  80.669  1.00  0.00     0.063 A 
ATOM     16 C10  LIG L   1      43.073  36.719  79.086  1.00  0.00     0.028 A 
ATOM     17 C11  LIG L   1      42.421  35.758  81.159  1.00  0.00     0.146 A 
ATOM     18 C12  LIG L   1      42.578  36.916  80.383  1.00  0.00     0.066 A 
ATOM     19  F1  LIG L   1      41.945  35.824  82.413  1.00  0.00    -0.203 F 
BRANCH   18   20
ATOM     20  N3  LIG L   1      42.317  38.230  80.814  1.00  0.00    -0.323 N 
ATOM     21 C13  LIG L   1      42.879  39.268  79.920  1.00  0.00     0.133 C 
ATOM     22 C14  LIG L   1      40.929  38.564  81.213  1.00  0.00     0.142 C 
ATOM     23 C15  LIG L   1      42.804  40.639  80.607  1.00  0.00     0.179 C 
ATOM     24 C16  LIG L   1      40.886  39.955  81.910  1.00  0.00     0.108 C 
ATOM     25  O4  LIG L   1      41.484  40.968  81.062  1.00  0.00    -0.368 OA
ATOM     26 C17  LIG L   1      41.572  39.891  83.300  1.00  0.00     0.041 C 
ATOM     27 C18  LIG L   1      39.405  40.382  82.088  1.00  0.00     0.196 C 
ATOM     28 C19  LIG L   1      40.927  40.878  84.267  1.00  0.00     0.031 C 
ATOM     29  O5  LIG L   1      38.871  39.896  83.319  1.00  0.00    -0.377 OA
ATOM     30 C20  LIG L   1      39.442  40.567  84.446  1.00  0.00     0.160 C 
ENDBRANCH   18   20
ENDBRANCH    3   13
TORSDOF 4
ENDMDL
