REMARK  Name = 
REMARK  5 active torsions:
REMARK  status: ('A' for Active; 'I' for Inactive)
REMARK    1  A    between atoms: C_1  and  C_2
REMARK    2  A    between atoms: N_4  and  C_5
REMARK    3  A    between atoms: C_5  and  C_6
REMARK    4  A    between atoms: N_8  and  C_9
REMARK    5  A    between atoms: C_12  and  N_13
REMARK                            x       y       z     vdW  Elec       q    Type
REMARK                         _______ _______ _______ _____ _____    ______ ____
ROOT
ATOM      1  C   UNL     1       2.382  -2.421  -4.439  0.00  0.00    +0.000 A 
ATOM      2  C   UNL     1       1.337  -3.088  -3.792  0.00  0.00    +0.000 A 
ATOM      3  C   UNL     1       0.146  -3.403  -4.474  0.00  0.00    +0.000 A 
ATOM      4  C   UNL     1      -0.011  -3.145  -5.843  0.00  0.00    +0.000 A 
ATOM      5  C   UNL     1       1.062  -2.488  -6.473  0.00  0.00    +0.000 A 
ATOM      6  F   UNL     1       0.973  -2.185  -7.779  0.00  0.00    +0.000 F 
ATOM      7  C   UNL     1       2.226  -2.097  -5.785  0.00  0.00    +0.000 A 
ENDROOT
BRANCH   4   8
ATOM      8  N   UNL     1      -1.156  -3.549  -6.501  0.00  0.00    +0.000 N 
ATOM      9  C   UNL     1      -1.138  -4.375  -7.716  0.00  0.00    +0.000 C 
ATOM     10  C   UNL     1      -1.819  -3.648  -8.884  0.00  0.00    +0.000 C 
ATOM     11  O   UNL     1      -3.133  -3.172  -8.527  0.00  0.00    +0.000 OA
ATOM     12  C   UNL     1      -3.106  -2.305  -7.364  0.00  0.00    +0.000 C 
ATOM     13  C   UNL     1      -4.546  -1.892  -7.049  0.00  0.00    +0.000 C 
ATOM     14  C   UNL     1      -4.539  -0.380  -7.117  0.00  0.00    +0.000 C 
ATOM     15  O   UNL     1      -3.439  -0.017  -7.946  0.00  0.00    +0.000 OA
ATOM     16  C   UNL     1      -2.405  -0.974  -7.670  0.00  0.00    +0.000 C 
ATOM     17  C   UNL     1      -2.480  -3.035  -6.149  0.00  0.00    +0.000 C 
ENDBRANCH   4   8
BRANCH   1  20
ATOM     18  C   UNL     1       5.157  -0.945  -2.516  0.00  0.00    +0.000 C 
ATOM     19  C   UNL     1       4.116  -0.789  -3.618  0.00  0.00    +0.000 C 
ATOM     20  N   UNL     1       3.553  -2.101  -3.722  0.00  0.00    +0.000 N 
ATOM     21  C   UNL     1       4.362  -3.023  -3.094  0.00  0.00    +0.000 C 
ATOM     22  O   UNL     1       4.258  -4.242  -3.111  0.00  0.00    +0.000 OA
ATOM     23  O   UNL     1       5.380  -2.373  -2.448  0.00  0.00    +0.000 OA
BRANCH  18  24
ATOM     24  C   UNL     1       6.495  -0.251  -2.809  0.00  0.00    +0.000 C 
BRANCH  24  28
ATOM     25  C   UNL     1       7.850   3.302  -2.560  0.00  0.00    +0.000 C 
ATOM     26  C   UNL     1       7.821   1.803  -2.733  0.00  0.00    +0.000 C 
ATOM     27  O   UNL     1       8.843   1.174  -2.992  0.00  0.00    +0.000 OA
ATOM     28  N   UNL     1       6.584   1.192  -2.592  0.00  0.00    +0.000 N 
ATOM     29  H   UNL     1       5.763   1.761  -2.426  0.00  0.00    +0.000 HD
ENDBRANCH  24  28
ENDBRANCH  18  24
ENDBRANCH   1  20
TORSDOF 4
